(PID.TID 0000.0001) 
(PID.TID 0000.0001) // ======================================================
(PID.TID 0000.0001) //                      MITgcm UV
(PID.TID 0000.0001) //                      =========
(PID.TID 0000.0001) // ======================================================
(PID.TID 0000.0001) // execution environment starting up...
(PID.TID 0000.0001) 
(PID.TID 0000.0001) // MITgcmUV version:  checkpoint58q_post
(PID.TID 0000.0001) // Build user:        heimbach
(PID.TID 0000.0001) // Build host:        faulks
(PID.TID 0000.0001) // Build date:        Wed Nov  8 16:54:52 EST 2006
(PID.TID 0000.0001) 
(PID.TID 0000.0001) // =======================================================
(PID.TID 0000.0001) // Execution Environment parameter file "eedata"
(PID.TID 0000.0001) // =======================================================
(PID.TID 0000.0001) ># Example "eedata" file
(PID.TID 0000.0001) ># Lines beginning "#" are comments
(PID.TID 0000.0001) ># nTx - No. threads per process in X
(PID.TID 0000.0001) ># nTy - No. threads per process in Y
(PID.TID 0000.0001) > &EEPARMS
(PID.TID 0000.0001) > nTx=1,
(PID.TID 0000.0001) > nTy=1,
(PID.TID 0000.0001) > /
(PID.TID 0000.0001) ># Note: Some systems use & as the
(PID.TID 0000.0001) ># namelist terminator. Other systems
(PID.TID 0000.0001) ># use a / character (as shown here).
(PID.TID 0000.0001) 
(PID.TID 0000.0001) // =======================================================
(PID.TID 0000.0001) // Computational Grid Specification ( see files "SIZE.h" )
(PID.TID 0000.0001) //                                  ( and "eedata"       )
(PID.TID 0000.0001) // =======================================================
(PID.TID 0000.0001)      nPx =    1 ; /* No. processes in X */
(PID.TID 0000.0001)      nPy =    1 ; /* No. processes in Y */
(PID.TID 0000.0001)      nSx =    1 ; /* No. tiles in X per process */
(PID.TID 0000.0001)      nSy =    1 ; /* No. tiles in Y per process */
(PID.TID 0000.0001)      sNx =   90 ; /* Tile size in X */
(PID.TID 0000.0001)      sNy =   40 ; /* Tile size in Y */
(PID.TID 0000.0001)      OLx =    3 ; /* Tile overlap distance in X */
(PID.TID 0000.0001)      OLy =    3 ; /* Tile overlap distance in Y */
(PID.TID 0000.0001)      nTx =    1 ; /* No. threads in X per process */
(PID.TID 0000.0001)      nTy =    1 ; /* No. threads in Y per process */
(PID.TID 0000.0001)       Nr =   15 ; /* No. levels in the vertical   */
(PID.TID 0000.0001)       nX =   90 ; /* Total domain size in X ( = nPx*nSx*sNx ) */
(PID.TID 0000.0001)       nY =   40 ; /* Total domain size in Y ( = nPy*nSy*sNy ) */
(PID.TID 0000.0001)   nTiles =    1 ; /* Total no. tiles per process ( = nSx*nSy ) */
(PID.TID 0000.0001)   nProcs =    1 ; /* Total no. processes ( = nPx*nPy ) */
(PID.TID 0000.0001) nThreads =    1 ; /* Total no. threads per process ( = nTx*nTy ) */
(PID.TID 0000.0001) usingMPI =    F ; /* Flag used to control whether MPI is in use */
(PID.TID 0000.0001)                   /*  note: To execute a program with MPI calls */
(PID.TID 0000.0001)                   /*  it must be launched appropriately e.g     */
(PID.TID 0000.0001)                   /*  "mpirun -np 64 ......"                    */
(PID.TID 0000.0001) useCoupler=   F ; /* Flag used to control communications with */
(PID.TID 0000.0001)                   /*  other model components, through a coupler */
(PID.TID 0000.0001) 
(PID.TID 0000.0001) // ======================================================
(PID.TID 0000.0001) // Mapping of tiles to threads
(PID.TID 0000.0001) // ======================================================
(PID.TID 0000.0001) // -o- Thread   1, tiles (   1:   1,   1:   1)
(PID.TID 0000.0001) 
(PID.TID 0000.0001) // ======================================================
(PID.TID 0000.0001) // Tile <-> Tile connectvity table
(PID.TID 0000.0001) // ======================================================
(PID.TID 0000.0001) // Tile number: 000001 (process no. = 000001)
(PID.TID 0000.0001) //        WEST: Tile = 000001, Process = 000001, Comm = put
(PID.TID 0000.0001) //                bi = 000001, bj = 000001
(PID.TID 0000.0001) //        EAST: Tile = 000001, Process = 000001, Comm = put
(PID.TID 0000.0001) //                bi = 000001, bj = 000001
(PID.TID 0000.0001) //       SOUTH: Tile = 000001, Process = 000001, Comm = put
(PID.TID 0000.0001) //                bi = 000001, bj = 000001
(PID.TID 0000.0001) //       NORTH: Tile = 000001, Process = 000001, Comm = put
(PID.TID 0000.0001) //                bi = 000001, bj = 000001
(PID.TID 0000.0001) 
(PID.TID 0000.0001) // =======================================================
(PID.TID 0000.0001) // Model parameter file "data"
(PID.TID 0000.0001) // =======================================================
(PID.TID 0000.0001) ># ====================
(PID.TID 0000.0001) ># | Model parameters |
(PID.TID 0000.0001) ># ====================
(PID.TID 0000.0001) >#
(PID.TID 0000.0001) ># Continuous equation parameters
(PID.TID 0000.0001) > &PARM01
(PID.TID 0000.0001) > tRef = 15*20.,
(PID.TID 0000.0001) > sRef = 15*35.,
(PID.TID 0000.0001) > viscAr=1.E-3,
(PID.TID 0000.0001) > viscAh=5.E5,
(PID.TID 0000.0001) > diffKhT=0.0,
(PID.TID 0000.0001) > diffKrT=3.E-5,
(PID.TID 0000.0001) > diffKhS=0.0,
(PID.TID 0000.0001) > diffKrS=3.E-5,
(PID.TID 0000.0001) > rhonil=1035.,
(PID.TID 0000.0001) > rotationPeriod=86400.,
(PID.TID 0000.0001) > gravity=9.81,
(PID.TID 0000.0001) > eosType = 'POLY3',
(PID.TID 0000.0001) > ivdc_kappa=100.,
(PID.TID 0000.0001) > implicitDiffusion=.TRUE.,
(PID.TID 0000.0001) > allowFreezing=.TRUE.,
(PID.TID 0000.0001) > useRealFreshWaterFlux=.TRUE.,
(PID.TID 0000.0001) > useCDscheme=.TRUE.,
(PID.TID 0000.0001) ># turn on looped cells
(PID.TID 0000.0001) > hFacMin=.05,
(PID.TID 0000.0001) > hFacMindr=50.,
(PID.TID 0000.0001) ># set precision of data files
(PID.TID 0000.0001) > readBinaryPrec=32,
(PID.TID 0000.0001) > &
(PID.TID 0000.0001) >
(PID.TID 0000.0001) ># Elliptic solver parameters
(PID.TID 0000.0001) > &PARM02
(PID.TID 0000.0001) > cg2dMaxIters=500,
(PID.TID 0000.0001) > cg2dTargetResidual=1.E-13,
(PID.TID 0000.0001) > &
(PID.TID 0000.0001) >
(PID.TID 0000.0001) ># Time stepping parameters
(PID.TID 0000.0001) > &PARM03
(PID.TID 0000.0001) > nIter0 =      0,
(PID.TID 0000.0001) > nTimeSteps = 120,
(PID.TID 0000.0001) ># 100 years of integration will yield a reasonable flow field
(PID.TID 0000.0001) ># startTime  =          0.,
(PID.TID 0000.0001) ># endTime    = 3110400000.,
(PID.TID 0000.0001) > deltaTmom = 1200.0,
(PID.TID 0000.0001) > tauCD =     321428.,
(PID.TID 0000.0001) > deltaTtracer= 43200.0,
(PID.TID 0000.0001) > deltaTClock = 43200.0,
(PID.TID 0000.0001) ># if you are using a version later than checkpoint45d on the main branch
(PID.TID 0000.0001) ># you can uncomment the following line and increase the time step
(PID.TID 0000.0001) ># deltaTtracer and deltaTClock to 172800.0 as well to speed up the
(PID.TID 0000.0001) ># asynchronous time stepping
(PID.TID 0000.0001) ># deltaTfreesurf = 172800.0,
(PID.TID 0000.0001) > abEps = 0.1,
(PID.TID 0000.0001) > pChkptFreq= 311040000.,
(PID.TID 0000.0001) > dumpFreq=   311040000.,
(PID.TID 0000.0001) > dumpFreq=   864000.,
(PID.TID 0000.0001) > adjDumpFreq= 432000.,
(PID.TID 0000.0001) > adjMonitorFreq=1.,
(PID.TID 0000.0001) ># taveFreq=   311040000.,
(PID.TID 0000.0001) ># taveFreq=   864000.,
(PID.TID 0000.0001) >#monitorFreq=31104000.,
(PID.TID 0000.0001) > monitorFreq=1.,
(PID.TID 0000.0001) ># 2 months restoring timescale for temperature
(PID.TID 0000.0001) > tauThetaClimRelax =  5184000.0,
(PID.TID 0000.0001) ># 6 months restoring timescale for salinity
(PID.TID 0000.0001) > tauSaltClimRelax = 15552000.0,
(PID.TID 0000.0001) > periodicExternalForcing=.TRUE.,
(PID.TID 0000.0001) > externForcingPeriod=2592000.,
(PID.TID 0000.0001) > externForcingCycle=31104000.,
(PID.TID 0000.0001) > &
(PID.TID 0000.0001) >
(PID.TID 0000.0001) ># Gridding parameters
(PID.TID 0000.0001) > &PARM04
(PID.TID 0000.0001) > usingCartesianGrid=.FALSE.,
(PID.TID 0000.0001) > usingSphericalPolarGrid=.TRUE.,
(PID.TID 0000.0001) > delR= 50., 70., 100., 140., 190.,
(PID.TID 0000.0001) >       240., 290., 340., 390., 440.,
(PID.TID 0000.0001) >       490., 540., 590., 640., 690.,
(PID.TID 0000.0001) > phiMin=-80.,
(PID.TID 0000.0001) > dySpacing=4.,
(PID.TID 0000.0001) > dxSpacing=4.,
(PID.TID 0000.0001) > &
(PID.TID 0000.0001) >
(PID.TID 0000.0001) ># Input datasets
(PID.TID 0000.0001) > &PARM05
(PID.TID 0000.0001) > bathyFile=      'bathymetry.bin',
(PID.TID 0000.0001) > hydrogThetaFile='lev_t.bin',
(PID.TID 0000.0001) > hydrogSaltFile= 'lev_s.bin',
(PID.TID 0000.0001) > zonalWindFile=  'trenberth_taux.bin',
(PID.TID 0000.0001) > meridWindFile=  'trenberth_tauy.bin',
(PID.TID 0000.0001) > thetaClimFile=  'lev_sst.bin',
(PID.TID 0000.0001) > saltClimFile=   'lev_sss.bin',
(PID.TID 0000.0001) > surfQFile=      'ncep_qnet.bin',
(PID.TID 0000.0001) ># fresh water flux is turned off, uncomment next line to turn on
(PID.TID 0000.0001) ># (not recommened together with surface salinity restoring)
(PID.TID 0000.0001) ># EmPmRFile=      'ncep_emp.bin',
(PID.TID 0000.0001) > &
(PID.TID 0000.0001) 
(PID.TID 0000.0001) S/R INI_PARMS ; starts to read PARM01
(PID.TID 0000.0001) S/R INI_PARMS ; read PARM01 : OK
(PID.TID 0000.0001) S/R INI_PARMS: No request for barotropic solver
(PID.TID 0000.0001) S/R INI_PARMS: => Use implicitFreeSurface as default
(PID.TID 0000.0001) S/R INI_PARMS ; starts to read PARM02
(PID.TID 0000.0001) S/R INI_PARMS ; read PARM02 : OK
(PID.TID 0000.0001) S/R INI_PARMS ; starts to read PARM03
(PID.TID 0000.0001) S/R INI_PARMS ; read PARM03 : OK
(PID.TID 0000.0001) S/R INI_PARMS ; starts to read PARM04
(PID.TID 0000.0001) S/R INI_PARMS ; read PARM04 : OK
(PID.TID 0000.0001) S/R INI_PARMS ; starts to read PARM05
(PID.TID 0000.0001) S/R INI_PARMS ; read PARM05 : OK
(PID.TID 0000.0001)  PACKAGES_BOOT: opening data.pkg
(PID.TID 0000.0001)  OPEN_COPY_DATA_FILE: opening file data.pkg
(PID.TID 0000.0001) // =======================================================
(PID.TID 0000.0001) // Parameter file "data.pkg"
(PID.TID 0000.0001) // =======================================================
(PID.TID 0000.0001) >#
(PID.TID 0000.0001) ># ********
(PID.TID 0000.0001) ># Packages
(PID.TID 0000.0001) ># ********
(PID.TID 0000.0001) > &PACKAGES
(PID.TID 0000.0001) > useGMRedi    = .TRUE.,
(PID.TID 0000.0001) > useKPP       = .FALSE.,
(PID.TID 0000.0001) > useGrdchk    = .TRUE.,
(PID.TID 0000.0001) > useMNC       = .TRUE.,
(PID.TID 0000.0001) > &
(PID.TID 0000.0001) 
(PID.TID 0000.0001)  PACKAGES_BOOT: finished reading data.pkg
(PID.TID 0000.0001)  MNC_READPARMS: opening file 'data.mnc'
(PID.TID 0000.0001)  OPEN_COPY_DATA_FILE: opening file data.mnc
(PID.TID 0000.0001) // =======================================================
(PID.TID 0000.0001) // Parameter file "data.mnc"
(PID.TID 0000.0001) // =======================================================
(PID.TID 0000.0001) ># Example "data.mnc" file
(PID.TID 0000.0001) ># Lines beginning "#" are comments
(PID.TID 0000.0001) > &MNC_01
(PID.TID 0000.0001) ># mnc_echo_gvtypes=.FALSE.,
(PID.TID 0000.0001) ># mnc_use_indir=.FALSE.,
(PID.TID 0000.0001) > mnc_use_outdir=.TRUE.,
(PID.TID 0000.0001) > mnc_outdir_str='mnc_test_',
(PID.TID 0000.0001) > mnc_outdir_date=.TRUE.,
(PID.TID 0000.0001) > monitor_mnc=.FALSE.,
(PID.TID 0000.0001) >#timeave_mnc=.FALSE.,
(PID.TID 0000.0001) >#snapshot_mnc=.FALSE.,
(PID.TID 0000.0001) >#autodiff_mnc=.FALSE.,
(PID.TID 0000.0001) > pickup_write_mnc=.FALSE.,
(PID.TID 0000.0001) > pickup_read_mnc=.FALSE.,
(PID.TID 0000.0001) > &
(PID.TID 0000.0001) ># Note: Some systems use & as the
(PID.TID 0000.0001) ># namelist terminator. Other systems
(PID.TID 0000.0001) ># use a / character (as shown here).
(PID.TID 0000.0001) 
(PID.TID 0000.0001)  MNC_READPARMS: finished reading data.mnc
(PID.TID 0000.0001)  GM_READPARMS: opening data.gmredi
(PID.TID 0000.0001)  OPEN_COPY_DATA_FILE: opening file data.gmredi
(PID.TID 0000.0001) // =======================================================
(PID.TID 0000.0001) // Parameter file "data.gmredi"
(PID.TID 0000.0001) // =======================================================
(PID.TID 0000.0001) ># GM+Redi package parameters:
(PID.TID 0000.0001) >#     GM_Small_Number  :: epsilon used in computing the slope
(PID.TID 0000.0001) >#     GM_slopeSqCutoff :: slope^2 cut-off value
(PID.TID 0000.0001) >
(PID.TID 0000.0001) >#-from MOM :
(PID.TID 0000.0001) ># GM_background_K: 	G & Mc.W  diffusion coefficient
(PID.TID 0000.0001) ># GM_maxSlope    :	max slope of isopycnals
(PID.TID 0000.0001) ># GM_Scrit       :	transition for scaling diffusion coefficient
(PID.TID 0000.0001) ># GM_Sd          :	half width scaling for diffusion coefficient
(PID.TID 0000.0001) ># GM_taper_scheme:	slope clipping or one of the tapering schemes
(PID.TID 0000.0001) ># GM_Kmin_horiz  :	horizontal diffusion minimum value
(PID.TID 0000.0001) >
(PID.TID 0000.0001) >#-Option parameters (needs to "define" options in GMREDI_OPTIONS.h")
(PID.TID 0000.0001) ># GM_isopycK     :	isopycnal diffusion coefficient (default=GM_background_K)
(PID.TID 0000.0001) ># GM_AdvForm     :	turn on GM Advective form       (default=Skew flux form)
(PID.TID 0000.0001) >
(PID.TID 0000.0001) > &GM_PARM01
(PID.TID 0000.0001) >  GM_Small_Number  = 1.D-20,
(PID.TID 0000.0001) >  GM_slopeSqCutoff = 1.D+08,
(PID.TID 0000.0001) >  GM_AdvForm         = .TRUE.,
(PID.TID 0000.0001) >  GM_isopycK         = 1.1D+3,
(PID.TID 0000.0001) >  GM_background_K    = 0.9D+3,
(PID.TID 0000.0001) >  GM_taper_scheme    = 'dm95',
(PID.TID 0000.0001) >  GM_maxSlope        = 1.D-2,
(PID.TID 0000.0001) >  GM_Kmin_horiz      = 50.,
(PID.TID 0000.0001) >  GM_Scrit           = 4.D-3,
(PID.TID 0000.0001) >  GM_Sd              = 1.D-3,
(PID.TID 0000.0001) >#  GM_Visbeck_alpha   = 1.5D-2,
(PID.TID 0000.0001) >  GM_Visbeck_alpha   = 0.D0,
(PID.TID 0000.0001) >  GM_Visbeck_length  = 2.D+5,
(PID.TID 0000.0001) >  GM_Visbeck_depth   = 1.D+3,
(PID.TID 0000.0001) >  GM_Visbeck_maxval_K= 2.5D+3,
(PID.TID 0000.0001) > &
(PID.TID 0000.0001) >
(PID.TID 0000.0001) >
(PID.TID 0000.0001) 
(PID.TID 0000.0001)  GM_READPARMS: finished reading data.gmredi
(PID.TID 0000.0001) OPTIM_READPARMS: opening data.optim
(PID.TID 0000.0001)  OPEN_COPY_DATA_FILE: opening file data.optim
(PID.TID 0000.0001) // =======================================================
(PID.TID 0000.0001) // Parameter file "data.optim"
(PID.TID 0000.0001) // =======================================================
(PID.TID 0000.0001) >#
(PID.TID 0000.0001) ># ********************************
(PID.TID 0000.0001) ># Off-line optimization parameters
(PID.TID 0000.0001) ># ********************************
(PID.TID 0000.0001) > &OPTIM
(PID.TID 0000.0001) > optimcycle=0,
(PID.TID 0000.0001) > &
(PID.TID 0000.0001) 
(PID.TID 0000.0001) OPTIM_READPARMS: finished reading data.optim
(PID.TID 0000.0001) CTRL_READPARMS: opening data.ctrl
(PID.TID 0000.0001)  OPEN_COPY_DATA_FILE: opening file data.ctrl
(PID.TID 0000.0001) // =======================================================
(PID.TID 0000.0001) // Parameter file "data.ctrl"
(PID.TID 0000.0001) // =======================================================
(PID.TID 0000.0001) >#
(PID.TID 0000.0001) >#
(PID.TID 0000.0001) ># *********************
(PID.TID 0000.0001) ># ECCO controlvariables
(PID.TID 0000.0001) ># *********************
(PID.TID 0000.0001) > &CTRL_NML
(PID.TID 0000.0001) > xx_theta_file      = 'xx_theta',
(PID.TID 0000.0001) > xx_salt_file       = 'xx_salt',
(PID.TID 0000.0001) > xx_tr1_file        = 'xx_tr1',
(PID.TID 0000.0001) > xx_hflux_file      = 'xx_hflux',
(PID.TID 0000.0001) > xx_sflux_file      = 'xx_sflux',
(PID.TID 0000.0001) > xx_tauu_file       = 'xx_tauu',
(PID.TID 0000.0001) > xx_tauv_file       = 'xx_tauv',
(PID.TID 0000.0001) > xx_diffkr_file     = 'xx_diffkr',
(PID.TID 0000.0001) > xx_kapgm_file      = 'xx_kapgm',
(PID.TID 0000.0001) > &
(PID.TID 0000.0001) >#
(PID.TID 0000.0001) ># *********************
(PID.TID 0000.0001) ># names for ctrl_pack/unpack
(PID.TID 0000.0001) ># *********************
(PID.TID 0000.0001) > &CTRL_PACKNAMES
(PID.TID 0000.0001) > ctrlname = 'ecco_ctrl',
(PID.TID 0000.0001) > costname = 'ecco_cost',
(PID.TID 0000.0001) > scalname = 'ecco_scal',
(PID.TID 0000.0001) > maskname = 'ecco_mask',
(PID.TID 0000.0001) > metaname = 'ecco_meta',
(PID.TID 0000.0001) > &
(PID.TID 0000.0001) >
(PID.TID 0000.0001) 
(PID.TID 0000.0001) CTRL_READPARMS: finished reading data.ctrl
(PID.TID 0000.0001) COST_READPARMS: opening data.cost
(PID.TID 0000.0001)  OPEN_COPY_DATA_FILE: opening file data.cost
(PID.TID 0000.0001) // =======================================================
(PID.TID 0000.0001) // Parameter file "data.cost"
(PID.TID 0000.0001) // =======================================================
(PID.TID 0000.0001) >#
(PID.TID 0000.0001) >#
(PID.TID 0000.0001) ># ******************
(PID.TID 0000.0001) ># ECCO cost function
(PID.TID 0000.0001) ># ******************
(PID.TID 0000.0001) > &COST_NML
(PID.TID 0000.0001) >#
(PID.TID 0000.0001) > mult_tracer  = 1.,
(PID.TID 0000.0001) > mult_test    = 1.,
(PID.TID 0000.0001) > mult_atl     = 1.,
(PID.TID 0000.0001) > &
(PID.TID 0000.0001) 
(PID.TID 0000.0001) COST_READPARMS: finished reading data.cost
(PID.TID 0000.0001) GRDCHK_READPARMS: opening data.grdchk
(PID.TID 0000.0001)  OPEN_COPY_DATA_FILE: opening file data.grdchk
(PID.TID 0000.0001) // =======================================================
(PID.TID 0000.0001) // Parameter file "data.grdchk"
(PID.TID 0000.0001) // =======================================================
(PID.TID 0000.0001) >
(PID.TID 0000.0001) ># *******************
(PID.TID 0000.0001) ># ECCO gradient check
(PID.TID 0000.0001) ># *******************
(PID.TID 0000.0001) > &GRDCHK_NML
(PID.TID 0000.0001) > grdchk_eps       = 1.d-2,
(PID.TID 0000.0001) > nbeg             = 1,
(PID.TID 0000.0001) > nstep            = 1,
(PID.TID 0000.0001) > nend             = 2,
(PID.TID 0000.0001) > grdchkvarindex   = 1,
(PID.TID 0000.0001) > &
(PID.TID 0000.0001) 
(PID.TID 0000.0001) GRDCHK_READPARMS: finished reading data.grdchk
(PID.TID 0000.0001) 
(PID.TID 0000.0001) // =======================================================
(PID.TID 0000.0001) // Gradient check configuration  >>> START <<<
(PID.TID 0000.0001) // =======================================================
(PID.TID 0000.0001) 
(PID.TID 0000.0001)   eps:                              0.100E-01
(PID.TID 0000.0001)   First location:                           1
(PID.TID 0000.0001)   Last location:                            2
(PID.TID 0000.0001)   Increment:                                1
(PID.TID 0000.0001) 
(PID.TID 0000.0001) // =======================================================
(PID.TID 0000.0001) // Gradient check configuration  >>> END <<<
(PID.TID 0000.0001) // =======================================================
(PID.TID 0000.0001) 
(PID.TID 0000.0001) SET_PARMS: done
(PID.TID 0000.0001) %MON XC_max                       =   3.5800000000000E+02
(PID.TID 0000.0001) %MON XC_min                       =   2.0000000000000E+00
(PID.TID 0000.0001) %MON XC_mean                      =   1.8000000000000E+02
(PID.TID 0000.0001) %MON XC_sd                        =   1.0391663325314E+02
(PID.TID 0000.0001) %MON XG_max                       =   3.5600000000000E+02
(PID.TID 0000.0001) %MON XG_min                       =   4.0000000000000E+00
(PID.TID 0000.0001) %MON XG_mean                      =   1.8000000000000E+02
(PID.TID 0000.0001) %MON XG_sd                        =   1.0276186062932E+02
(PID.TID 0000.0001) %MON DXC_max                      =   4.4443898815675E+05
(PID.TID 0000.0001) %MON DXC_min                      =   9.2460385861875E+04
(PID.TID 0000.0001) %MON DXC_mean                     =   3.1372497618153E+05
(PID.TID 0000.0001) %MON DXC_sd                       =   1.1216447457560E+05
(PID.TID 0000.0001) %MON DXF_max                      =   4.4443898815675E+05
(PID.TID 0000.0001) %MON DXF_min                      =   9.2460385861875E+04
(PID.TID 0000.0001) %MON DXF_mean                     =   3.1372497618153E+05
(PID.TID 0000.0001) %MON DXF_sd                       =   1.1216447457560E+05
(PID.TID 0000.0001) %MON DXG_max                      =   4.4470989340816E+05
(PID.TID 0000.0001) %MON DXG_min                      =   7.7223062580781E+04
(PID.TID 0000.0001) %MON DXG_mean                     =   3.1353386340260E+05
(PID.TID 0000.0001) %MON DXG_sd                       =   1.1256651772502E+05
(PID.TID 0000.0001) %MON DXV_max                      =   4.4470989340816E+05
(PID.TID 0000.0001) %MON DXV_min                      =   7.7223062580781E+04
(PID.TID 0000.0001) %MON DXV_mean                     =   3.1353386340260E+05
(PID.TID 0000.0001) %MON DXV_sd                       =   1.1256651772502E+05
(PID.TID 0000.0001) %MON YC_max                       =   7.8000000000000E+01
(PID.TID 0000.0001) %MON YC_min                       =  -7.8000000000000E+01
(PID.TID 0000.0001) %MON YC_mean                      =   0.0000000000000E+00
(PID.TID 0000.0001) %MON YC_sd                        =   4.6173585522461E+01
(PID.TID 0000.0001) %MON YG_max                       =   7.6000000000000E+01
(PID.TID 0000.0001) %MON YG_min                       =  -8.0000000000000E+01
(PID.TID 0000.0001) %MON YG_mean                      =  -2.0512820512821E+00
(PID.TID 0000.0001) %MON YG_sd                        =   4.6760682979564E+01
(PID.TID 0000.0001) %MON DYC_max                      =   4.4470989340816E+05
(PID.TID 0000.0001) %MON DYC_min                      =   4.4470989340816E+05
(PID.TID 0000.0001) %MON DYC_mean                     =   4.4470989340814E+05
(PID.TID 0000.0001) %MON DYC_sd                       =   1.9848812371492E-08
(PID.TID 0000.0001) %MON DYF_max                      =   4.4470989340816E+05
(PID.TID 0000.0001) %MON DYF_min                      =   4.4470989340816E+05
(PID.TID 0000.0001) %MON DYF_mean                     =   4.4470989340814E+05
(PID.TID 0000.0001) %MON DYF_sd                       =   1.9848812371492E-08
(PID.TID 0000.0001) %MON DYG_max                      =   4.4470989340816E+05
(PID.TID 0000.0001) %MON DYG_min                      =   4.4470989340816E+05
(PID.TID 0000.0001) %MON DYG_mean                     =   4.4470989340814E+05
(PID.TID 0000.0001) %MON DYG_sd                       =   1.9848812371492E-08
(PID.TID 0000.0001) %MON DYU_max                      =   4.4470989340816E+05
(PID.TID 0000.0001) %MON DYU_min                      =   4.4470989340816E+05
(PID.TID 0000.0001) %MON DYU_mean                     =   4.4470989340814E+05
(PID.TID 0000.0001) %MON DYU_sd                       =   1.9848812371492E-08
(PID.TID 0000.0001) %MON RA_max                       =   1.9760627980089E+11
(PID.TID 0000.0001) %MON RA_min                       =   4.1109698667290E+10
(PID.TID 0000.0001) %MON RA_mean                      =   1.3948826965197E+11
(PID.TID 0000.0001) %MON RA_sd                        =   4.9870522472902E+10
(PID.TID 0000.0001) %MON RAW_max                      =   1.9760627980089E+11
(PID.TID 0000.0001) %MON RAW_min                      =   4.1109698667290E+10
(PID.TID 0000.0001) %MON RAW_mean                     =   1.3948826965197E+11
(PID.TID 0000.0001) %MON RAW_sd                       =   4.9870522472902E+10
(PID.TID 0000.0001) %MON RAS_max                      =   1.9772672958215E+11
(PID.TID 0000.0001) %MON RAS_min                      =   3.4334886267983E+10
(PID.TID 0000.0001) %MON RAS_mean                     =   1.3940329716694E+11
(PID.TID 0000.0001) %MON RAS_sd                       =   5.0049278732354E+10
(PID.TID 0000.0001) %MON RAZ_max                      =   1.9772672958215E+11
(PID.TID 0000.0001) %MON RAZ_min                      =   3.4334886267983E+10
(PID.TID 0000.0001) %MON RAZ_mean                     =   1.3940329716694E+11
(PID.TID 0000.0001) %MON RAZ_sd                       =   5.0049278732354E+10
(PID.TID 0000.0001) %MON AngleCS_max                  =   1.0000000000000E+00
(PID.TID 0000.0001) %MON AngleCS_min                  =   1.0000000000000E+00
(PID.TID 0000.0001) %MON AngleCS_mean                 =   1.0000000000000E+00
(PID.TID 0000.0001) %MON AngleCS_sd                   =   0.0000000000000E+00
(PID.TID 0000.0001) %MON AngleSN_max                  =   0.0000000000000E+00
(PID.TID 0000.0001) %MON AngleSN_min                  =   0.0000000000000E+00
(PID.TID 0000.0001) %MON AngleSN_mean                 =   0.0000000000000E+00
(PID.TID 0000.0001) %MON AngleSN_sd                   =   0.0000000000000E+00
(PID.TID 0000.0001)  MDSREADFIELD: opening global file: bathymetry.bin
(PID.TID 0000.0001) // =======================================================
(PID.TID 0000.0001) // Field Model R_low (ini_masks_etc) at iteration          1
(PID.TID 0000.0001) // CMIN =         -5.200000000000000E+03
(PID.TID 0000.0001) // CMAX =         -1.200000000000000E+02
(PID.TID 0000.0001) // CINT =          1.881481481481482E+02
(PID.TID 0000.0001) // SYMBOLS (CMIN->CMAX): -abcdefghijklmnopqrstuvwxyz+
(PID.TID 0000.0001) //                  0.0: .
(PID.TID 0000.0001) // RANGE I (Lo:Hi:Step):(  -2:  93:   1)
(PID.TID 0000.0001) // RANGE J (Lo:Hi:Step):(  43:  -2:  -1)
(PID.TID 0000.0001) // RANGE K (Lo:Hi:Step):(   1:   1:   1)
(PID.TID 0000.0001) // =======================================================
(PID.TID 0000.0001) K =   1
(PID.TID 0000.0001) //                I=7       I=17      I=27      I=37      I=47      I=57      I=67      I=77      I=87
(PID.TID 0000.0001) // |--J--|210123456|890123456|890123456|890123456|890123456|890123456|890123456|890123456|890123456|890123
(PID.TID 0000.0001) //     43 ................................................................................................
(PID.TID 0000.0001) //     42 .............................................zyxxmgfeeefefgimnpwwwy..+zyy.....yyyyoiiihhz+......
(PID.TID 0000.0001) //     41 ................................................................................................
(PID.TID 0000.0001) //     40 +qlloqz+.++++zzz++++++..................................................................+++qlloq
(PID.TID 0000.0001) //     39 uslloorzzzzzzzzz+...++.....................................................yxxz........+zvuslloo
(PID.TID 0000.0001) //     38 smqpporzzzzzz+++...........................................................zxxy+......zyyvsmqppo
(PID.TID 0000.0001) //     37 smmmuz..................................................................++...zy+...yttyy.+smmmuz
(PID.TID 0000.0001) //     36 yutt+.........................................mm++....................+++++++znmm.yoowssvuyutt+.
(PID.TID 0000.0001) //     35 w++++.................................+zzz..rrmmkk+...+gghn...........+++....+nmiijlsoopuww++++.
(PID.TID 0000.0001) //     34 +.....................................+vvy.ggqyxv+y.ccdffhim..................+nihhikkihhm+.....
(PID.TID 0000.0001) //     33 w+.....................................uuz---h------aaabdefin+.................zqvddflifffw+....
(PID.TID 0000.0001) //     32 m+.....................................+t----h---------acdfgnn................+++gdffkofffm+....
(PID.TID 0000.0001) //     31 m......................................-----ad--------abddegil..............qbaafccdhqqgddm.....
(PID.TID 0000.0001) //     30 i.....................................f----b--b------------abd............zfbb--fbcdosjfddi.....
(PID.TID 0000.0001) //     29 i...................................tu----e---fjg----------abdf...........eaac--abfmijaadgi.....
(PID.TID 0000.0001) //     28 z.................................+xfl-------------------bdedefi.........qbaa---aemfbbaaejz.....
(PID.TID 0000.0001) //     27 .................xx..............+wfgfpf--------eallc---bbbccefgi...+++x.qb-----akfa---ah.......
(PID.TID 0000.0001) //     26 .................xnn...........+vd---dna------a--aicfna---aabdfghku.++xssuy-----bgca---ci.......
(PID.TID 0000.0001) //     25 .................iiik...oo+...+ivd---doaa-bc--ilglf--aa---aabcghhkll...ssum+xaaacjbaabdjk.......
(PID.TID 0000.0001) //     24 ...............xnheeft.kkk+...uii.aagdm----aa-----a-------bbbcdefjljjju.zummwwbbchba--abi.......
(PID.TID 0000.0001) //     23 ...............xgheefp.iikw...uuw..fihi----fed-----eaaa--bbbbcdfflkjiiiq....zykccefa--abd.......
(PID.TID 0000.0001) //     22 quss...........bbelffslffkk...zz.wqkeeqoheccdfa-----egabaabcdddegghliiiqq......xeeehheehccquss..
(PID.TID 0000.0001) //     21 cbbeir........nbbcdjhqdddiiz.....wqfeelgghmedea-----bibbcddddddefghklnqoo........ieeflhgcccbbeir
(PID.TID 0000.0001) //     20 cbbder.......ldcccdgkccccidd......z.vkkktqqhegg----aaacddddddddefghkiiijl.........nhfa--gfcbbder
(PID.TID 0000.0001) //     19 hcdaaf.......kddosggpaaaibbccx...+z+.....r+nlec---agaaabcddccddefikfgffff...........d---cjhcdaaf
(PID.TID 0000.0001) //     18 hd---d.......kglggvliaaaibbcaaeaiv++...qqzolhecccfdgkaabcdfccdeeikgfgffdd+..........d---djhd---d
(PID.TID 0000.0001) //     17 hc---c.......l.feewlfaaaoaa----aiv.....qqnllslmlofcdbaacceffffhhligfigeddj.........hd---ckhc---c
(PID.TID 0000.0001) //     16 gba--c......tn.ddgnlfdaaqa-----lv.......vnllvllnwv--accivomfffhilhgfffeddjf........re--aeigba--c
(PID.TID 0000.0001) //     15 fb--dpz....+ll.ccdfhmdddlc----av.........otsxoomv---abccddfihgijkhgfffeejfff......+fd---ckfb--dp
(PID.TID 0000.0001) //     14 fc--mcl....weeqbaafilkfend--eagy.........hhstofft----aacdheefijkmjhhjijiffff.....zlfdaaadlfc--mc
(PID.TID 0000.0001) //     13 hcclbbg....nccobaaiddgkffqrqeaal.........eeutqfft------aaceeffhijlkjhhigfffq....+jgfodccflhcclbb
(PID.TID 0000.0001) //     12 hhgaaacw+iiicclemhdddfliigfdcaabfaaaz....ccsurqpc--------abcifffikiiihhggff.....kbbbdfffglhhgaaa
(PID.TID 0000.0001) //     11 kgcaaacbbifccennhbbdefnihgfdccaaaa----..dcccnt.ncab-------aabcdfilhggjiggff....l---abcefjlkgcaaa
(PID.TID 0000.0001) //     10 kfcaaccbdaacfrllfbbdegkmmljhfdddba----d.dcccfx.nyrebaba----abcdgilhfeegijgi..+w--aa-abcfilkfcaac
(PID.TID 0000.0001) //      9 lffcdcccaaaoqsolfdeehikihhlllgfedcccccdmdcccf.vyfaaaaaaaa--abdehmjhfeeefglv.++w-----abcdfklffcdc
(PID.TID 0000.0001) //      8 liffjklcaafddffeeccvznkfffhhhlkjifgjkkfeeddfsyvcaaaaaaccdcccdfgjligedbbceg+.++xffn--cfddefliffjk
(PID.TID 0000.0001) //      7 hmqnnbbkkf--bmbaabbgtykfddeffeeddccdfhlffeelfbaaaaaacddeghgjgjlligeddaaabedfiiiiiisvkfkecchmqnnb
(PID.TID 0000.0001) //      6 cca-------------aabcelttdddedddddccccdfkkiiffbaaaabcdgimmkmefecaaabbbaaabbdfiiiiispmmregifcca---
(PID.TID 0000.0001) //      5 --------a-------aaccehhhiddeddddddcccdfiikomodddefffmlmigedccaaaaaaaababbbdfiijsqgeccccbaa------
(PID.TID 0000.0001) //      4 --ahebaabbbbbeihffgijiiiijpywnnpokkomkiiijmmmolkommmgffeeedccaaaaaabbcccefhmz..yjgeccccbaa--aheb
(PID.TID 0000.0001) //      3 gffhhrpjiiwyy............................yxotmjjjjgfeeeeeeddeffffheddeghjkyy..yqjgeddccdbbgffhhr
(PID.TID 0000.0001) //      2 .............................................zyxxmgfeeefefgimnpwwwy..+zyy.....yyyyoiiihhz+......
(PID.TID 0000.0001) //      1 ................................................................................................
(PID.TID 0000.0001) //      0 +qlloqz+.++++zzz++++++..................................................................+++qlloq
(PID.TID 0000.0001) //     -1 uslloorzzzzzzzzz+...++.....................................................yxxz........+zvuslloo
(PID.TID 0000.0001) //     -2 ................................................................................................
(PID.TID 0000.0001) // =======================================================
(PID.TID 0000.0001) // END OF FIELD                                          =
(PID.TID 0000.0001) // =======================================================
(PID.TID 0000.0001) 
(PID.TID 0000.0001) // =======================================================
(PID.TID 0000.0001) // Field Model Ro_surf (ini_masks_etc) at iteration          1
(PID.TID 0000.0001) // CMIN =          1.000000000000000E+32
(PID.TID 0000.0001) // CMAX =         -1.000000000000000E+32
(PID.TID 0000.0001) // CINT =          0.000000000000000E+00
(PID.TID 0000.0001) // SYMBOLS (CMIN->CMAX): -abcdefghijklmnopqrstuvwxyz+
(PID.TID 0000.0001) //                  0.0: .
(PID.TID 0000.0001) // RANGE I (Lo:Hi:Step):(  -2:  93:   1)
(PID.TID 0000.0001) // RANGE J (Lo:Hi:Step):(  43:  -2:  -1)
(PID.TID 0000.0001) // RANGE K (Lo:Hi:Step):(   1:   1:   1)
(PID.TID 0000.0001) // =======================================================
(PID.TID 0000.0001) // =======================================================
(PID.TID 0000.0001) // END OF FIELD                                          =
(PID.TID 0000.0001) // =======================================================
(PID.TID 0000.0001) 
(PID.TID 0000.0001) // =======================================================
(PID.TID 0000.0001) // Field hFacC at iteration          1
(PID.TID 0000.0001) // CMIN =          1.000000000000000E+00
(PID.TID 0000.0001) // CMAX =          1.000000000000000E+00
(PID.TID 0000.0001) // CINT =          0.000000000000000E+00
(PID.TID 0000.0001) // SYMBOLS (CMIN->CMAX): -abcdefghijklmnopqrstuvwxyz+
(PID.TID 0000.0001) //                  0.0: .
(PID.TID 0000.0001) // RANGE I (Lo:Hi:Step):(  -2:  93:   1)
(PID.TID 0000.0001) // RANGE J (Lo:Hi:Step):(  43:  -2:  -1)
(PID.TID 0000.0001) // RANGE K (Lo:Hi:Step):(   1:   1:   1)
(PID.TID 0000.0001) // =======================================================
(PID.TID 0000.0001) // =======================================================
(PID.TID 0000.0001) // END OF FIELD                                          =
(PID.TID 0000.0001) // =======================================================
(PID.TID 0000.0001) 
(PID.TID 0000.0001) // =======================================================
(PID.TID 0000.0001) // Field hFacW at iteration          1
(PID.TID 0000.0001) // CMIN =          1.000000000000000E+00
(PID.TID 0000.0001) // CMAX =          1.000000000000000E+00
(PID.TID 0000.0001) // CINT =          0.000000000000000E+00
(PID.TID 0000.0001) // SYMBOLS (CMIN->CMAX): -abcdefghijklmnopqrstuvwxyz+
(PID.TID 0000.0001) //                  0.0: .
(PID.TID 0000.0001) // RANGE I (Lo:Hi:Step):(  -2:  93:   1)
(PID.TID 0000.0001) // RANGE J (Lo:Hi:Step):(  43:  -2:  -1)
(PID.TID 0000.0001) // RANGE K (Lo:Hi:Step):(   1:   1:   1)
(PID.TID 0000.0001) // =======================================================
(PID.TID 0000.0001) // =======================================================
(PID.TID 0000.0001) // END OF FIELD                                          =
(PID.TID 0000.0001) // =======================================================
(PID.TID 0000.0001) 
(PID.TID 0000.0001) // =======================================================
(PID.TID 0000.0001) // Field hFacS at iteration          1
(PID.TID 0000.0001) // CMIN =          1.000000000000000E+00
(PID.TID 0000.0001) // CMAX =          1.000000000000000E+00
(PID.TID 0000.0001) // CINT =          0.000000000000000E+00
(PID.TID 0000.0001) // SYMBOLS (CMIN->CMAX): -abcdefghijklmnopqrstuvwxyz+
(PID.TID 0000.0001) //                  0.0: .
(PID.TID 0000.0001) // RANGE I (Lo:Hi:Step):(  -2:  93:   1)
(PID.TID 0000.0001) // RANGE J (Lo:Hi:Step):(  43:  -2:  -1)
(PID.TID 0000.0001) // RANGE K (Lo:Hi:Step):(   1:   1:   1)
(PID.TID 0000.0001) // =======================================================
(PID.TID 0000.0001) // =======================================================
(PID.TID 0000.0001) // END OF FIELD                                          =
(PID.TID 0000.0001) // =======================================================
(PID.TID 0000.0001) 
(PID.TID 0000.0001) 
(PID.TID 0000.0001) // ===================================
(PID.TID 0000.0001) // GAD parameters :
(PID.TID 0000.0001) // ===================================
(PID.TID 0000.0001) tempAdvScheme =   /* Temp. Horiz.Advection scheme selector */
(PID.TID 0000.0001)                       2
(PID.TID 0000.0001)     ;
(PID.TID 0000.0001) tempVertAdvScheme =   /* Temp. Vert. Advection scheme selector */
(PID.TID 0000.0001)                       2
(PID.TID 0000.0001)     ;
(PID.TID 0000.0001) tempMultiDimAdvec =   /* use Muti-Dim Advec method for Temp */
(PID.TID 0000.0001)                   F
(PID.TID 0000.0001)     ;
(PID.TID 0000.0001) AdamsBashforthGt =   /* apply Adams-Bashforth extrapolation on Gt */
(PID.TID 0000.0001)                   T
(PID.TID 0000.0001)     ;
(PID.TID 0000.0001) AdamsBashforth_T =   /* apply Adams-Bashforth extrapolation on Temp */
(PID.TID 0000.0001)                   F
(PID.TID 0000.0001)     ;
(PID.TID 0000.0001) saltAdvScheme =   /* Salt. Horiz.advection scheme selector */
(PID.TID 0000.0001)                       2
(PID.TID 0000.0001)     ;
(PID.TID 0000.0001) saltVertAdvScheme =   /* Salt. Vert. Advection scheme selector */
(PID.TID 0000.0001)                       2
(PID.TID 0000.0001)     ;
(PID.TID 0000.0001) saltMultiDimAdvec =   /* use Muti-Dim Advec method for Salt */
(PID.TID 0000.0001)                   F
(PID.TID 0000.0001)     ;
(PID.TID 0000.0001) AdamsBashforthGs =   /* apply Adams-Bashforth extrapolation on Gs */
(PID.TID 0000.0001)                   T
(PID.TID 0000.0001)     ;
(PID.TID 0000.0001) AdamsBashforth_S =   /* apply Adams-Bashforth extrapolation on Salt */
(PID.TID 0000.0001)                   F
(PID.TID 0000.0001)     ;
(PID.TID 0000.0001) // ===================================
(PID.TID 0000.0001) ctrl-wet 1:    nvarlength =        96912
(PID.TID 0000.0001) ctrl-wet 2: surface wet C =         2315
(PID.TID 0000.0001) ctrl-wet 3: surface wet W =         2206
(PID.TID 0000.0001) ctrl-wet 4: surface wet S =         2149
(PID.TID 0000.0001) ctrl-wet 4a:surface wet V =            0
(PID.TID 0000.0001) ctrl-wet 5: 3D wet points =        29309
(PID.TID 0000.0001) ctrl-wet 6: no recs for i =     1           1
(PID.TID 0000.0001) ctrl-wet 6: no recs for i =     2           1
(PID.TID 0000.0001) ctrl-wet 6: no recs for i =     3           1
(PID.TID 0000.0001) ctrl-wet 6: no recs for i =     4           1
(PID.TID 0000.0001) ctrl-wet 6: no recs for i =     5           1
(PID.TID 0000.0001) ctrl-wet 6: no recs for i =     6           1
(PID.TID 0000.0001) ctrl-wet 6: no recs for i =     7           0
(PID.TID 0000.0001) ctrl-wet 6: no recs for i =     8           0
(PID.TID 0000.0001) ctrl-wet 6: no recs for i =     9           0
(PID.TID 0000.0001) ctrl-wet 6: no recs for i =    10           0
(PID.TID 0000.0001) ctrl-wet 6: no recs for i =    11           0
(PID.TID 0000.0001) ctrl-wet 6: no recs for i =    12           0
(PID.TID 0000.0001) ctrl-wet 6: no recs for i =    13           0
(PID.TID 0000.0001) ctrl-wet 6: no recs for i =    14           0
(PID.TID 0000.0001) ctrl-wet 6: no recs for i =    15           1
(PID.TID 0000.0001) ctrl-wet 6: no recs for i =    16           0
(PID.TID 0000.0001) ctrl-wet 6: no recs for i =    17           0
(PID.TID 0000.0001) ctrl-wet 6: no recs for i =    18           0
(PID.TID 0000.0001) ctrl-wet 6: no recs for i =    19           0
(PID.TID 0000.0001) ctrl-wet 6: no recs for i =    20           0
(PID.TID 0000.0001) ctrl-wet 6: no recs for i =    21           0
(PID.TID 0000.0001) ctrl-wet 6: no recs for i =    22           0
(PID.TID 0000.0001) ctrl-wet 6: no recs for i =    23           0
(PID.TID 0000.0001) ctrl-wet 6: no recs for i =    24           0
(PID.TID 0000.0001) ctrl-wet 6: no recs for i =    25           0
(PID.TID 0000.0001) ctrl-wet 6: no recs for i =    26           0
(PID.TID 0000.0001) ctrl-wet 6: no recs for i =    27           0
(PID.TID 0000.0001) ctrl-wet 6: no recs for i =    28           0
(PID.TID 0000.0001) ctrl-wet 6: no recs for i =    29           0
(PID.TID 0000.0001) ctrl-wet 6: no recs for i =    30           0
(PID.TID 0000.0001) ctrl-wet 6: no recs for i =    31           0
(PID.TID 0000.0001) ctrl-wet 6: no recs for i =    32           0
(PID.TID 0000.0001) ctrl-wet 6: no recs for i =    33           0
(PID.TID 0000.0001) ctrl-wet 6: no recs for i =    34           0
(PID.TID 0000.0001) ctrl-wet 6: no recs for i =    35           0
(PID.TID 0000.0001) ctrl-wet 6: no recs for i =    36           0
(PID.TID 0000.0001) ctrl-wet 6: no recs for i =    37           0
(PID.TID 0000.0001) ctrl-wet 6: no recs for i =    38           0
(PID.TID 0000.0001) ctrl-wet 6: no recs for i =    39           0
(PID.TID 0000.0001) ctrl-wet 6: no recs for i =    40           0
(PID.TID 0000.0001) ctrl-wet 7: flux         67603
(PID.TID 0000.0001) ctrl-wet 8: atmos        58618
(PID.TID 0000.0001) ctrl-wet 13: global nvarlength vor k=   16       96912
(PID.TID 0000.0001) ctrl_init: no. of control variables:            7
(PID.TID 0000.0001) ctrl_init: control vector length:           96912
(PID.TID 0000.0001) GMREDI_CHECK: #define GMREDI
(PID.TID 0000.0001) GM_AdvForm =  /* if FALSE => use SkewFlux Form */
(PID.TID 0000.0001)                   T
(PID.TID 0000.0001)     ;
(PID.TID 0000.0001) GM_AdvSeparate = /* Calc Bolus & Euler Adv. separately */
(PID.TID 0000.0001)                   F
(PID.TID 0000.0001)     ;
(PID.TID 0000.0001) GM_ExtraDiag =  /* Tensor Extra Diag (line 1&2) non 0 */
(PID.TID 0000.0001)                   T
(PID.TID 0000.0001)     ;
(PID.TID 0000.0001) GM_isopycK =   /* Background Isopyc. Diffusivity ( m^2/s ) */
(PID.TID 0000.0001)                 1.100000000000000E+03
(PID.TID 0000.0001)     ;
(PID.TID 0000.0001)  GM_skewflx*K =   /* Background GM_SkewFlx Diffusivity ( m^2/s ) */
(PID.TID 0000.0001)                 0.000000000000000E+00
(PID.TID 0000.0001)     ;
(PID.TID 0000.0001)  GM_advec*K =   /* Backg. GM-Advec(=Bolus) Diffusivity ( m^2/s ) */
(PID.TID 0000.0001)                 9.000000000000000E+02
(PID.TID 0000.0001)     ;
(PID.TID 0000.0001)  GM_Visbeck_alpha =   /* Visbeck alpha coeff. ( ) */
(PID.TID 0000.0001)                 0.000000000000000E+00
(PID.TID 0000.0001)     ;
(PID.TID 0000.0001)  Tapering/Cliping : dm95
(PID.TID 0000.0001)  GM_Small_Number =  /* epsilon used in slope calc */
(PID.TID 0000.0001)                 9.999999999999999E-21
(PID.TID 0000.0001)     ;
(PID.TID 0000.0001)  GM_slopeSqCutoff =  /* Slope^2 cut-off value */
(PID.TID 0000.0001)                 1.000000000000000E+08
(PID.TID 0000.0001)     ;
(PID.TID 0000.0001) CTRL_CHECK: ctrl package
(PID.TID 0000.0001) COST_CHECK: cost package
(PID.TID 0000.0001) CTRL_CHECK: ctrl package
(PID.TID 0000.0001) %MON fCori_max                    =   1.4226580169407E-04
(PID.TID 0000.0001) %MON fCori_min                    =  -1.4226580169407E-04
(PID.TID 0000.0001) %MON fCori_mean                   =   7.5291817533716E-23
(PID.TID 0000.0001) %MON fCori_sd                     =   9.6335367303778E-05
(PID.TID 0000.0001) %MON fCoriG_max                   =   1.4112379284621E-04
(PID.TID 0000.0001) %MON fCoriG_min                   =  -1.4323448157692E-04
(PID.TID 0000.0001) %MON fCoriG_mean                  =  -3.6726790147928E-06
(PID.TID 0000.0001) %MON fCoriG_sd                    =   9.7510077443652E-05
(PID.TID 0000.0001) %MON fCoriCos_max                 =   1.4535550371427E-04
(PID.TID 0000.0001) %MON fCoriCos_min                 =   3.0239529651320E-05
(PID.TID 0000.0001) %MON fCoriCos_mean                =   1.0260497651149E-04
(PID.TID 0000.0001) %MON fCoriCos_sd                  =   3.6683828681187E-05
(PID.TID 0000.0001) INI_CG2D: CG2D normalisation factor =  6.5682677425711703E-05
(PID.TID 0000.0001) 
(PID.TID 0000.0001) CONFIG_CHECK: OK
(PID.TID 0000.0001) // =======================================================
(PID.TID 0000.0001) // Model configuration
(PID.TID 0000.0001) // =======================================================
(PID.TID 0000.0001) //
(PID.TID 0000.0001) // "Physical" paramters ( PARM01 in namelist )
(PID.TID 0000.0001) //
(PID.TID 0000.0001) buoyancyRelation = OCEANIC
(PID.TID 0000.0001) fluidIsAir  =  /* fluid major constituent is Air */
(PID.TID 0000.0001)                   F
(PID.TID 0000.0001)     ;
(PID.TID 0000.0001) fluidIsWater=  /* fuild major constituent is Water */
(PID.TID 0000.0001)                   T
(PID.TID 0000.0001)     ;
(PID.TID 0000.0001) usingPCoords =  /* use p (or p*) vertical coordinate */
(PID.TID 0000.0001)                   F
(PID.TID 0000.0001)     ;
(PID.TID 0000.0001) usingZCoords =  /* use z (or z*) vertical coordinate */
(PID.TID 0000.0001)                   T
(PID.TID 0000.0001)     ;
(PID.TID 0000.0001) tRef =   /* Reference temperature profile ( oC or K ) */
(PID.TID 0000.0001)    15 @  2.000000000000000E+01              /* K =  1: 15 */
(PID.TID 0000.0001)     ;
(PID.TID 0000.0001) sRef =   /* Reference salinity profile ( psu ) */
(PID.TID 0000.0001)    15 @  3.500000000000000E+01              /* K =  1: 15 */
(PID.TID 0000.0001)     ;
(PID.TID 0000.0001) viscAh =   /* Lateral eddy viscosity ( m^2/s ) */
(PID.TID 0000.0001)                 5.000000000000000E+05
(PID.TID 0000.0001)     ;
(PID.TID 0000.0001) viscAhMax =   /* Maximum lateral eddy viscosity ( m^2/s ) */
(PID.TID 0000.0001)                 1.000000000000000E+21
(PID.TID 0000.0001)     ;
(PID.TID 0000.0001) viscAhGrid =   /* Grid dependent lateral eddy viscosity ( non-dim. ) */
(PID.TID 0000.0001)                 0.000000000000000E+00
(PID.TID 0000.0001)     ;
(PID.TID 0000.0001) useFullLeith =   /* Use Full Form of Leith Viscosity on/off flag*/
(PID.TID 0000.0001)                   F
(PID.TID 0000.0001)     ;
(PID.TID 0000.0001) useStrainTensionVisc =   /* Use StrainTension Form of Viscous Operator on/off flag*/
(PID.TID 0000.0001)                   F
(PID.TID 0000.0001)     ;
(PID.TID 0000.0001) useAreaViscLength =   /* Use area for visc length instead of geom. mean*/
(PID.TID 0000.0001)                   F
(PID.TID 0000.0001)     ;
(PID.TID 0000.0001) viscC2leith = /* Leith harmonic visc. factor (on grad(vort),non-dim.) */
(PID.TID 0000.0001)                 0.000000000000000E+00
(PID.TID 0000.0001)     ;
(PID.TID 0000.0001) viscC2leithD = /* Leith harmonic viscosity factor (on grad(div),non-dim.) */
(PID.TID 0000.0001)                 0.000000000000000E+00
(PID.TID 0000.0001)     ;
(PID.TID 0000.0001) viscC2smag =   /* Smagorinsky harmonic viscosity factor (non-dim.) */
(PID.TID 0000.0001)                 0.000000000000000E+00
(PID.TID 0000.0001)     ;
(PID.TID 0000.0001) viscA4 =   /* Lateral biharmonic viscosity ( m^4/s ) */
(PID.TID 0000.0001)                 0.000000000000000E+00
(PID.TID 0000.0001)     ;
(PID.TID 0000.0001) viscA4Max =   /* Maximum biharmonic viscosity ( m^2/s ) */
(PID.TID 0000.0001)                 1.000000000000000E+21
(PID.TID 0000.0001)     ;
(PID.TID 0000.0001) viscA4Grid =   /* Grid dependent biharmonic viscosity ( non-dim. ) */
(PID.TID 0000.0001)                 0.000000000000000E+00
(PID.TID 0000.0001)     ;
(PID.TID 0000.0001) viscC4leith = /* Leith biharm viscosity factor (on grad(vort), non-dim.) */
(PID.TID 0000.0001)                 0.000000000000000E+00
(PID.TID 0000.0001)     ;
(PID.TID 0000.0001) viscC4leithD = /* Leith biharm viscosity factor (on grad(div), non-dim.) */
(PID.TID 0000.0001)                 0.000000000000000E+00
(PID.TID 0000.0001)     ;
(PID.TID 0000.0001) viscC4Smag = /* Smagorinsky biharm viscosity factor (non-dim) */
(PID.TID 0000.0001)                 0.000000000000000E+00
(PID.TID 0000.0001)     ;
(PID.TID 0000.0001) no_slip_sides =  /* Viscous BCs: No-slip sides */
(PID.TID 0000.0001)                   T
(PID.TID 0000.0001)     ;
(PID.TID 0000.0001) sideDragFactor = /* side-drag scaling factor (non-dim) */
(PID.TID 0000.0001)                 2.000000000000000E+00
(PID.TID 0000.0001)     ;
(PID.TID 0000.0001) viscAr =   /* Vertical eddy viscosity ( units of r^2/s ) */
(PID.TID 0000.0001)                 1.000000000000000E-03
(PID.TID 0000.0001)     ;
(PID.TID 0000.0001) no_slip_bottom =  /* Viscous BCs: No-slip bottom */
(PID.TID 0000.0001)                   T
(PID.TID 0000.0001)     ;
(PID.TID 0000.0001) bottomDragLinear = /* linear bottom-drag coefficient ( 1/s ) */
(PID.TID 0000.0001)                 0.000000000000000E+00
(PID.TID 0000.0001)     ;
(PID.TID 0000.0001) bottomDragQuadratic = /* quadratic bottom-drag coeff. ( 1/m ) */
(PID.TID 0000.0001)                 0.000000000000000E+00
(PID.TID 0000.0001)     ;
(PID.TID 0000.0001) diffKhT =   /* Laplacian diffusion of heat laterally ( m^2/s ) */
(PID.TID 0000.0001)                 0.000000000000000E+00
(PID.TID 0000.0001)     ;
(PID.TID 0000.0001) diffK4T =   /* Bihaarmonic diffusion of heat laterally ( m^4/s ) */
(PID.TID 0000.0001)                 0.000000000000000E+00
(PID.TID 0000.0001)     ;
(PID.TID 0000.0001) diffKhS =   /* Laplacian diffusion of salt laterally ( m^2/s ) */
(PID.TID 0000.0001)                 0.000000000000000E+00
(PID.TID 0000.0001)     ;
(PID.TID 0000.0001) diffK4S =   /* Bihaarmonic diffusion of salt laterally ( m^4/s ) */
(PID.TID 0000.0001)                 0.000000000000000E+00
(PID.TID 0000.0001)     ;
(PID.TID 0000.0001) diffKrNrT = /* vertical profile of vertical diffusion of Temp ( m^2/s )*/
(PID.TID 0000.0001)    15 @  3.000000000000000E-05              /* K =  1: 15 */
(PID.TID 0000.0001)     ;
(PID.TID 0000.0001) diffKrNrS = /* vertical profile of vertical diffusion of Salt ( m^2/s )*/
(PID.TID 0000.0001)    15 @  3.000000000000000E-05              /* K =  1: 15 */
(PID.TID 0000.0001)     ;
(PID.TID 0000.0001) diffKrBL79surf =   /* Surface diffusion for Bryan and Lewis 1979 ( m^2/s ) */
(PID.TID 0000.0001)                 0.000000000000000E+00
(PID.TID 0000.0001)     ;
(PID.TID 0000.0001) diffKrBL79deep =   /* Deep diffusion for Bryan and Lewis 1979 ( m^2/s ) */
(PID.TID 0000.0001)                 0.000000000000000E+00
(PID.TID 0000.0001)     ;
(PID.TID 0000.0001) diffKrBL79scl =   /* Depth scale for Bryan and Lewis 1979 ( m ) */
(PID.TID 0000.0001)                 2.000000000000000E+02
(PID.TID 0000.0001)     ;
(PID.TID 0000.0001) diffKrBL79Ho =   /* Turning depth for Bryan and Lewis 1979 ( m ) */
(PID.TID 0000.0001)                -2.000000000000000E+03
(PID.TID 0000.0001)     ;
(PID.TID 0000.0001) Equation of State : eosType = POLY3  ;
(PID.TID 0000.0001) tAlpha =   /* Linear EOS thermal expansion coefficient ( 1/oC ) */
(PID.TID 0000.0001)                 1.234567000000000E+05
(PID.TID 0000.0001)     ;
(PID.TID 0000.0001) sBeta =   /* Linear EOS haline contraction coefficient ( 1/psu ) */
(PID.TID 0000.0001)                 1.234567000000000E+05
(PID.TID 0000.0001)     ;
(PID.TID 0000.0001)   1  13.497  32.600  24.548  -0.202   0.773  -0.005  -0.002   0.000   0.000   0.000   0.000   0.000
(PID.TID 0000.0001)   2  13.488  32.600  24.819  -0.204   0.773  -0.005  -0.002   0.000   0.000   0.000   0.000   0.000
(PID.TID 0000.0001)   3  13.476  32.600  25.201  -0.205   0.772  -0.005  -0.002   0.000   0.000   0.000   0.000   0.000
(PID.TID 0000.0001)   4   8.469  35.150  28.642  -0.163   0.784  -0.005  -0.002   0.000   0.000   0.000   0.000   0.000
(PID.TID 0000.0001)   5   8.451  35.150  29.393  -0.167   0.782  -0.005  -0.002   0.000   0.000   0.000   0.000   0.000
(PID.TID 0000.0001)   6   5.940  34.900  30.563  -0.144   0.786  -0.005  -0.002  -0.001   0.000   0.000   0.000   0.000
(PID.TID 0000.0001)   7   4.425  34.900  31.985  -0.134   0.788  -0.005  -0.003   0.000   0.000   0.000   0.000   0.000
(PID.TID 0000.0001)   8   2.911  34.750  33.505  -0.125   0.789  -0.006  -0.003   0.000   0.000   0.000   0.000   0.000
(PID.TID 0000.0001)   9   1.893  34.800  35.341  -0.123   0.789  -0.006  -0.003   0.000   0.000   0.000   0.000   0.000
(PID.TID 0000.0001)  10   1.367  34.800  37.299  -0.129   0.787  -0.006  -0.003   0.000   0.000   0.000   0.000   0.000
(PID.TID 0000.0001)  11   1.327  34.800  39.405  -0.141   0.783  -0.005  -0.003   0.000   0.000   0.000   0.000   0.000
(PID.TID 0000.0001)  12   0.791  34.800  41.788  -0.149   0.780  -0.005  -0.003   0.000   0.000   0.000   0.000   0.000
(PID.TID 0000.0001)  13   0.736  34.750  44.259  -0.164   0.776  -0.005  -0.002   0.000   0.000   0.000   0.000   0.000
(PID.TID 0000.0001)  14   0.186  34.750  47.044  -0.175   0.773  -0.005  -0.002   0.000   0.000   0.000   0.000   0.000
(PID.TID 0000.0001)  15   0.595  34.750  49.835  -0.196   0.767  -0.004  -0.002   0.000   0.000   0.000   0.000   0.000
(PID.TID 0000.0001) rhonil =   /* Reference density ( kg/m^3 ) */
(PID.TID 0000.0001)                 1.035000000000000E+03
(PID.TID 0000.0001)     ;
(PID.TID 0000.0001) rhoConst =   /* Reference density ( kg/m^3 ) */
(PID.TID 0000.0001)                 1.035000000000000E+03
(PID.TID 0000.0001)     ;
(PID.TID 0000.0001) rhoConstFresh =   /* Reference density ( kg/m^3 ) */
(PID.TID 0000.0001)                 1.035000000000000E+03
(PID.TID 0000.0001)     ;
(PID.TID 0000.0001) gravity =   /* Gravitational acceleration ( m/s^2 ) */
(PID.TID 0000.0001)                 9.810000000000000E+00
(PID.TID 0000.0001)     ;
(PID.TID 0000.0001) gBaro =   /* Barotropic gravity ( m/s^2 ) */
(PID.TID 0000.0001)                 9.810000000000000E+00
(PID.TID 0000.0001)     ;
(PID.TID 0000.0001) rotationPeriod =   /* Rotation Period ( s ) */
(PID.TID 0000.0001)                 8.640000000000000E+04
(PID.TID 0000.0001)     ;
(PID.TID 0000.0001) omega =   /* Angular velocity ( rad/s ) */
(PID.TID 0000.0001)                 7.272205216643040E-05
(PID.TID 0000.0001)     ;
(PID.TID 0000.0001) f0 =   /* Reference coriolis parameter ( 1/s ) */
(PID.TID 0000.0001)                 1.000000000000000E-04
(PID.TID 0000.0001)     ;
(PID.TID 0000.0001) beta =   /* Beta ( 1/(m.s) ) */
(PID.TID 0000.0001)                 9.999999999999999E-12
(PID.TID 0000.0001)     ;
(PID.TID 0000.0001) freeSurfFac =   /* Implicit free surface factor */
(PID.TID 0000.0001)                 1.000000000000000E+00
(PID.TID 0000.0001)     ;
(PID.TID 0000.0001) implicitFreeSurface =   /* Implicit free surface on/off flag */
(PID.TID 0000.0001)                   T
(PID.TID 0000.0001)     ;
(PID.TID 0000.0001) rigidLid =   /* Rigid lid on/off flag */
(PID.TID 0000.0001)                   F
(PID.TID 0000.0001)     ;
(PID.TID 0000.0001) implicSurfPress =   /* Surface Pressure implicit factor (0-1)*/
(PID.TID 0000.0001)                 1.000000000000000E+00
(PID.TID 0000.0001)     ;
(PID.TID 0000.0001) implicDiv2Dflow =   /* Barot. Flow Div. implicit factor (0-1)*/
(PID.TID 0000.0001)                 1.000000000000000E+00
(PID.TID 0000.0001)     ;
(PID.TID 0000.0001) exactConserv =   /* Exact Volume Conservation on/off flag*/
(PID.TID 0000.0001)                   F
(PID.TID 0000.0001)     ;
(PID.TID 0000.0001) uniformLin_PhiSurf =   /* use uniform Bo_surf on/off flag*/
(PID.TID 0000.0001)                   T
(PID.TID 0000.0001)     ;
(PID.TID 0000.0001) nonlinFreeSurf =   /* Non-linear Free Surf. options (-1,0,1,2,3)*/
(PID.TID 0000.0001)                       0
(PID.TID 0000.0001)     ;
(PID.TID 0000.0001)      -1,0= Off ; 1,2,3= On, 2=+rescale gU,gV, 3=+update cg2d solv.
(PID.TID 0000.0001) hFacInf =   /* lower threshold for hFac (nonlinFreeSurf only)*/
(PID.TID 0000.0001)                 2.000000000000000E-01
(PID.TID 0000.0001)     ;
(PID.TID 0000.0001) hFacSup =   /* upper threshold for hFac (nonlinFreeSurf only)*/
(PID.TID 0000.0001)                 2.000000000000000E+00
(PID.TID 0000.0001)     ;
(PID.TID 0000.0001) select_rStar =   /* r* Coordinate options (not yet implemented)*/
(PID.TID 0000.0001)                       0
(PID.TID 0000.0001)     ;
(PID.TID 0000.0001) useRealFreshWaterFlux =   /* Real Fresh Water Flux on/off flag*/
(PID.TID 0000.0001)                   T
(PID.TID 0000.0001)     ;
(PID.TID 0000.0001) convertFW2Salt = /* convert F.W. Flux to Salt Flux (-1=use local S)(ppt)*/
(PID.TID 0000.0001)                -1.000000000000000E+00
(PID.TID 0000.0001)     ;
(PID.TID 0000.0001) use3Dsolver = /* use 3-D pressure solver on/off flag */
(PID.TID 0000.0001)                   F
(PID.TID 0000.0001)     ;
(PID.TID 0000.0001) nonHydrostatic =  /* Non-Hydrostatic on/off flag */
(PID.TID 0000.0001)                   F
(PID.TID 0000.0001)     ;
(PID.TID 0000.0001) nh_Am2 = /* Non-Hydrostatic terms scaling factor */
(PID.TID 0000.0001)                 1.000000000000000E+00
(PID.TID 0000.0001)     ;
(PID.TID 0000.0001) quasiHydrostatic = /* Quasi-Hydrostatic on/off flag */
(PID.TID 0000.0001)                   F
(PID.TID 0000.0001)     ;
(PID.TID 0000.0001) momStepping =  /* Momentum equation on/off flag */
(PID.TID 0000.0001)                   T
(PID.TID 0000.0001)     ;
(PID.TID 0000.0001) vectorInvariantMomentum= /* Vector-Invariant Momentum on/off */
(PID.TID 0000.0001)                   F
(PID.TID 0000.0001)     ;
(PID.TID 0000.0001) momAdvection =  /* Momentum advection on/off flag */
(PID.TID 0000.0001)                   T
(PID.TID 0000.0001)     ;
(PID.TID 0000.0001) momViscosity =  /* Momentum viscosity on/off flag */
(PID.TID 0000.0001)                   T
(PID.TID 0000.0001)     ;
(PID.TID 0000.0001) momImplVertAdv =/* Momentum implicit vert. advection on/off*/
(PID.TID 0000.0001)                   F
(PID.TID 0000.0001)     ;
(PID.TID 0000.0001) implicitViscosity = /* Implicit viscosity on/off flag */
(PID.TID 0000.0001)                   F
(PID.TID 0000.0001)     ;
(PID.TID 0000.0001) metricTerms =  /* metric-Terms on/off flag */
(PID.TID 0000.0001)                   T
(PID.TID 0000.0001)     ;
(PID.TID 0000.0001) useNHMTerms = /* Non-Hydrostatic Metric-Terms on/off */
(PID.TID 0000.0001)                   F
(PID.TID 0000.0001)     ;
(PID.TID 0000.0001) useConstantF =  /* use Constant f0 Coriolis flag */
(PID.TID 0000.0001)                   F
(PID.TID 0000.0001)     ;
(PID.TID 0000.0001) useBetaPlaneF = /* use Beta-Plane Coriolis flag */
(PID.TID 0000.0001)                   F
(PID.TID 0000.0001)     ;
(PID.TID 0000.0001) useSphereF  =   /* use Spherical Coriolis flag */
(PID.TID 0000.0001)                   T
(PID.TID 0000.0001)     ;
(PID.TID 0000.0001) use3dCoriolis = /* 3-D Coriolis on/off flag */
(PID.TID 0000.0001)                   F
(PID.TID 0000.0001)     ;
(PID.TID 0000.0001) useCoriolis =  /* Coriolis on/off flag */
(PID.TID 0000.0001)                   T
(PID.TID 0000.0001)     ;
(PID.TID 0000.0001) useCDscheme =  /* CD scheme on/off flag */
(PID.TID 0000.0001)                   T
(PID.TID 0000.0001)     ;
(PID.TID 0000.0001) useJamartWetPoints= /* Coriolis WetPoints method flag */
(PID.TID 0000.0001)                   F
(PID.TID 0000.0001)     ;
(PID.TID 0000.0001) useJamartMomAdv= /* V.I. Non-linear terms Jamart flag */
(PID.TID 0000.0001)                   F
(PID.TID 0000.0001)     ;
(PID.TID 0000.0001) SadournyCoriolis= /* Sadourny Coriolis discr. flag */
(PID.TID 0000.0001)                   F
(PID.TID 0000.0001)     ;
(PID.TID 0000.0001) upwindVorticity= /* Upwind bias vorticity flag */
(PID.TID 0000.0001)                   F
(PID.TID 0000.0001)     ;
(PID.TID 0000.0001) useAbsVorticity= /* Work with f+zeta in Coriolis */
(PID.TID 0000.0001)                   F
(PID.TID 0000.0001)     ;
(PID.TID 0000.0001) highOrderVorticity= /* High order interp. of vort. flag */
(PID.TID 0000.0001)                   F
(PID.TID 0000.0001)     ;
(PID.TID 0000.0001) upwindShear= /* Upwind vertical Shear advection flag */
(PID.TID 0000.0001)                   F
(PID.TID 0000.0001)     ;
(PID.TID 0000.0001) selectKEscheme= /* Kinetic Energy scheme selector */
(PID.TID 0000.0001)                       0
(PID.TID 0000.0001)     ;
(PID.TID 0000.0001) momForcing =  /* Momentum forcing on/off flag */
(PID.TID 0000.0001)                   T
(PID.TID 0000.0001)     ;
(PID.TID 0000.0001) momPressureForcing =  /* Momentum pressure term on/off flag */
(PID.TID 0000.0001)                   T
(PID.TID 0000.0001)     ;
(PID.TID 0000.0001) implicitIntGravWave= /* Implicit Internal Gravity Wave flag */
(PID.TID 0000.0001)                   F
(PID.TID 0000.0001)     ;
(PID.TID 0000.0001) staggerTimeStep =   /* Stagger time stepping on/off flag */
(PID.TID 0000.0001)                   F
(PID.TID 0000.0001)     ;
(PID.TID 0000.0001) multiDimAdvection =   /* enable/disable Multi-Dim Advection */
(PID.TID 0000.0001)                   T
(PID.TID 0000.0001)     ;
(PID.TID 0000.0001) useMultiDimAdvec =   /* Multi-Dim Advection is/is-not used */
(PID.TID 0000.0001)                   F
(PID.TID 0000.0001)     ;
(PID.TID 0000.0001) implicitDiffusion =/* Implicit Diffusion on/off flag */
(PID.TID 0000.0001)                   T
(PID.TID 0000.0001)     ;
(PID.TID 0000.0001) tempStepping =  /* Temperature equation on/off flag */
(PID.TID 0000.0001)                   T
(PID.TID 0000.0001)     ;
(PID.TID 0000.0001) tempAdvection=  /* Temperature advection on/off flag */
(PID.TID 0000.0001)                   T
(PID.TID 0000.0001)     ;
(PID.TID 0000.0001) tempImplVertAdv =/* Temp. implicit vert. advection on/off */
(PID.TID 0000.0001)                   F
(PID.TID 0000.0001)     ;
(PID.TID 0000.0001) tempForcing  =  /* Temperature forcing on/off flag */
(PID.TID 0000.0001)                   T
(PID.TID 0000.0001)     ;
(PID.TID 0000.0001) saltStepping =  /* Salinity equation on/off flag */
(PID.TID 0000.0001)                   T
(PID.TID 0000.0001)     ;
(PID.TID 0000.0001) saltAdvection=  /* Salinity advection on/off flag */
(PID.TID 0000.0001)                   T
(PID.TID 0000.0001)     ;
(PID.TID 0000.0001) saltImplVertAdv =/* Sali. implicit vert. advection on/off */
(PID.TID 0000.0001)                   F
(PID.TID 0000.0001)     ;
(PID.TID 0000.0001) saltForcing  =  /* Salinity forcing on/off flag */
(PID.TID 0000.0001)                   T
(PID.TID 0000.0001)     ;
(PID.TID 0000.0001)  readBinaryPrec = /* Precision used for reading binary files */
(PID.TID 0000.0001)                      32
(PID.TID 0000.0001)     ;
(PID.TID 0000.0001) writeBinaryPrec = /* Precision used for writing binary files */
(PID.TID 0000.0001)                      32
(PID.TID 0000.0001)     ;
(PID.TID 0000.0001)  globalFiles = /* write "global" (=not per tile) files */
(PID.TID 0000.0001)                   F
(PID.TID 0000.0001)     ;
(PID.TID 0000.0001)  useSingleCpuIO = /* only master MPI process does I/O */
(PID.TID 0000.0001)                   F
(PID.TID 0000.0001)     ;
(PID.TID 0000.0001)  debugMode  =  /* Debug Mode on/off flag */
(PID.TID 0000.0001)                   F
(PID.TID 0000.0001)     ;
(PID.TID 0000.0001)    debLevA  =  /* 1rst level of debugging */
(PID.TID 0000.0001)                       1
(PID.TID 0000.0001)     ;
(PID.TID 0000.0001)    debLevB  =  /* 2nd  level of debugging */
(PID.TID 0000.0001)                       2
(PID.TID 0000.0001)     ;
(PID.TID 0000.0001)  debugLevel =  /* select debugging level */
(PID.TID 0000.0001)                       1
(PID.TID 0000.0001)     ;
(PID.TID 0000.0001) //
(PID.TID 0000.0001) // Elliptic solver(s) paramters ( PARM02 in namelist )
(PID.TID 0000.0001) //
(PID.TID 0000.0001) cg2dMaxIters =   /* Upper limit on 2d con. grad iterations  */
(PID.TID 0000.0001)                     500
(PID.TID 0000.0001)     ;
(PID.TID 0000.0001) cg2dChkResFreq =   /* 2d con. grad convergence test frequency */
(PID.TID 0000.0001)                       1
(PID.TID 0000.0001)     ;
(PID.TID 0000.0001) cg2dTargetResidual =   /* 2d con. grad target residual  */
(PID.TID 0000.0001)                 1.000000000000000E-13
(PID.TID 0000.0001)     ;
(PID.TID 0000.0001) cg2dTargetResWunit =   /* CG2d target residual [W units] */
(PID.TID 0000.0001)                -1.000000000000000E+00
(PID.TID 0000.0001)     ;
(PID.TID 0000.0001) cg2dPreCondFreq =   /* Freq. for updating cg2d preconditioner */
(PID.TID 0000.0001)                       1
(PID.TID 0000.0001)     ;
(PID.TID 0000.0001) //
(PID.TID 0000.0001) // Time stepping paramters ( PARM03 in namelist )
(PID.TID 0000.0001) //
(PID.TID 0000.0001) nIter0 =   /* Run starting timestep number  */
(PID.TID 0000.0001)                       0
(PID.TID 0000.0001)     ;
(PID.TID 0000.0001) nTimeSteps =   /* Number of timesteps */
(PID.TID 0000.0001)                     120
(PID.TID 0000.0001)     ;
(PID.TID 0000.0001) deltaTmom =   /* Momentum equation timestep ( s ) */
(PID.TID 0000.0001)                 1.200000000000000E+03
(PID.TID 0000.0001)     ;
(PID.TID 0000.0001) deltaTfreesurf =   /* FreeSurface equation timestep ( s ) */
(PID.TID 0000.0001)                 1.200000000000000E+03
(PID.TID 0000.0001)     ;
(PID.TID 0000.0001) dTtracerLev =   /* Tracer equation timestep ( s ) */
(PID.TID 0000.0001)    15 @  4.320000000000000E+04              /* K =  1: 15 */
(PID.TID 0000.0001)     ;
(PID.TID 0000.0001) deltaTClock  =   /* Model clock timestep ( s ) */
(PID.TID 0000.0001)                 4.320000000000000E+04
(PID.TID 0000.0001)     ;
(PID.TID 0000.0001) cAdjFreq =   /* Convective adjustment interval ( s ) */
(PID.TID 0000.0001)                 0.000000000000000E+00
(PID.TID 0000.0001)     ;
(PID.TID 0000.0001) momForcingOutAB = /* =1: take Momentum Forcing out of Adams-Bash. stepping */
(PID.TID 0000.0001)                       0
(PID.TID 0000.0001)     ;
(PID.TID 0000.0001) tracForcingOutAB = /* =1: take T,S,pTr Forcing out of Adams-Bash. stepping */
(PID.TID 0000.0001)                       0
(PID.TID 0000.0001)     ;
(PID.TID 0000.0001) momDissip_In_AB = /* put Dissipation Tendency in Adams-Bash. stepping */
(PID.TID 0000.0001)                   T
(PID.TID 0000.0001)     ;
(PID.TID 0000.0001) doAB_onGtGs = /* apply AB on Tendencies (rather than on T,S)*/
(PID.TID 0000.0001)                   T
(PID.TID 0000.0001)     ;
(PID.TID 0000.0001) abEps =   /* Adams-Bashforth-2 stabilizing weight */
(PID.TID 0000.0001)                 1.000000000000000E-01
(PID.TID 0000.0001)     ;
(PID.TID 0000.0001) tauCD =   /* CD coupling time-scale ( s ) */
(PID.TID 0000.0001)                 3.214280000000000E+05
(PID.TID 0000.0001)     ;
(PID.TID 0000.0001) rCD =   /* Normalised CD coupling parameter */
(PID.TID 0000.0001)                 9.962666600296178E-01
(PID.TID 0000.0001)     ;
(PID.TID 0000.0001) baseTime =   /* Model base time ( s ). */
(PID.TID 0000.0001)                 0.000000000000000E+00
(PID.TID 0000.0001)     ;
(PID.TID 0000.0001) startTime =   /* Run start time ( s ). */
(PID.TID 0000.0001)                 0.000000000000000E+00
(PID.TID 0000.0001)     ;
(PID.TID 0000.0001) endTime =   /* Integration ending time ( s ). */
(PID.TID 0000.0001)                 5.184000000000000E+06
(PID.TID 0000.0001)     ;
(PID.TID 0000.0001) pChkPtFreq =   /* Permanent restart/checkpoint file interval ( s ). */
(PID.TID 0000.0001)                 3.110400000000000E+08
(PID.TID 0000.0001)     ;
(PID.TID 0000.0001) chkPtFreq =   /* Rolling restart/checkpoint file interval ( s ). */
(PID.TID 0000.0001)                 0.000000000000000E+00
(PID.TID 0000.0001)     ;
(PID.TID 0000.0001) pickup_write_mdsio =   /* Model IO flag. */
(PID.TID 0000.0001)                   T
(PID.TID 0000.0001)     ;
(PID.TID 0000.0001) pickup_read_mdsio =   /* Model IO flag. */
(PID.TID 0000.0001)                   T
(PID.TID 0000.0001)     ;
(PID.TID 0000.0001) pickup_write_mnc =   /* Model IO flag. */
(PID.TID 0000.0001)                   F
(PID.TID 0000.0001)     ;
(PID.TID 0000.0001) pickup_read_mnc =   /* Model IO flag. */
(PID.TID 0000.0001)                   F
(PID.TID 0000.0001)     ;
(PID.TID 0000.0001) pickup_write_immed =   /* Model IO flag. */
(PID.TID 0000.0001)                   F
(PID.TID 0000.0001)     ;
(PID.TID 0000.0001) dumpFreq =   /* Model state write out interval ( s ). */
(PID.TID 0000.0001)                 8.640000000000000E+05
(PID.TID 0000.0001)     ;
(PID.TID 0000.0001) dumpInitAndLast= /* write out Initial & Last iter. model state */
(PID.TID 0000.0001)                   T
(PID.TID 0000.0001)     ;
(PID.TID 0000.0001) snapshot_mdsio =   /* Model IO flag. */
(PID.TID 0000.0001)                   F
(PID.TID 0000.0001)     ;
(PID.TID 0000.0001) snapshot_mnc =   /* Model IO flag. */
(PID.TID 0000.0001)                   T
(PID.TID 0000.0001)     ;
(PID.TID 0000.0001) monitorFreq =   /* Monitor output interval ( s ). */
(PID.TID 0000.0001)                 1.000000000000000E+00
(PID.TID 0000.0001)     ;
(PID.TID 0000.0001) monitor_stdio =   /* Model IO flag. */
(PID.TID 0000.0001)                   T
(PID.TID 0000.0001)     ;
(PID.TID 0000.0001) monitor_mnc =   /* Model IO flag. */
(PID.TID 0000.0001)                   F
(PID.TID 0000.0001)     ;
(PID.TID 0000.0001) externForcingPeriod =   /* forcing period (s) */
(PID.TID 0000.0001)                 2.592000000000000E+06
(PID.TID 0000.0001)     ;
(PID.TID 0000.0001) externForcingCycle =   /* period of the cyle (s). */
(PID.TID 0000.0001)                 3.110400000000000E+07
(PID.TID 0000.0001)     ;
(PID.TID 0000.0001) tauThetaClimRelax =   /* relaxation time scale (s) */
(PID.TID 0000.0001)                 5.184000000000000E+06
(PID.TID 0000.0001)     ;
(PID.TID 0000.0001) tauSaltClimRelax =   /* relaxation time scale (s) */
(PID.TID 0000.0001)                 1.555200000000000E+07
(PID.TID 0000.0001)     ;
(PID.TID 0000.0001) latBandClimRelax =   /* max. Lat. where relaxation */
(PID.TID 0000.0001)                 1.800000000000000E+02
(PID.TID 0000.0001)     ;
(PID.TID 0000.0001) //
(PID.TID 0000.0001) // Gridding paramters ( PARM04 in namelist )
(PID.TID 0000.0001) //
(PID.TID 0000.0001) usingCartesianGrid =   /* Cartesian coordinates flag ( True / False ) */
(PID.TID 0000.0001)                   F
(PID.TID 0000.0001)     ;
(PID.TID 0000.0001) usingSphericalPolarGrid =   /* Spherical coordinates flag ( True / False ) */
(PID.TID 0000.0001)                   T
(PID.TID 0000.0001)     ;
(PID.TID 0000.0001) usingCylindricalGrid =   /* Spherical coordinates flag ( True / False ) */
(PID.TID 0000.0001)                   F
(PID.TID 0000.0001)     ;
(PID.TID 0000.0001) Ro_SeaLevel =   /* r(1) ( units of r ) */
(PID.TID 0000.0001)                 0.000000000000000E+00
(PID.TID 0000.0001)     ;
(PID.TID 0000.0001) rkSign =   /* index orientation relative to vertical coordinate */
(PID.TID 0000.0001)                -1.000000000000000E+00
(PID.TID 0000.0001)     ;
(PID.TID 0000.0001) horiVertRatio =   /* Ratio on units : Horiz - Vertical */
(PID.TID 0000.0001)                 1.000000000000000E+00
(PID.TID 0000.0001)     ;
(PID.TID 0000.0001) drC =   /* C spacing ( units of r ) */
(PID.TID 0000.0001)                 2.500000000000000E+01,      /* K =  1 */
(PID.TID 0000.0001)                 6.000000000000000E+01,      /* K =  2 */
(PID.TID 0000.0001)                 8.500000000000000E+01,      /* K =  3 */
(PID.TID 0000.0001)                 1.200000000000000E+02,      /* K =  4 */
(PID.TID 0000.0001)                 1.650000000000000E+02,      /* K =  5 */
(PID.TID 0000.0001)                 2.150000000000000E+02,      /* K =  6 */
(PID.TID 0000.0001)                 2.650000000000000E+02,      /* K =  7 */
(PID.TID 0000.0001)                 3.150000000000000E+02,      /* K =  8 */
(PID.TID 0000.0001)                 3.650000000000000E+02,      /* K =  9 */
(PID.TID 0000.0001)                 4.150000000000000E+02,      /* K = 10 */
(PID.TID 0000.0001)                 4.650000000000000E+02,      /* K = 11 */
(PID.TID 0000.0001)                 5.150000000000000E+02,      /* K = 12 */
(PID.TID 0000.0001)                 5.650000000000000E+02,      /* K = 13 */
(PID.TID 0000.0001)                 6.150000000000000E+02,      /* K = 14 */
(PID.TID 0000.0001)                 6.650000000000000E+02       /* K = 15 */
(PID.TID 0000.0001)     ;
(PID.TID 0000.0001) drF =   /* W spacing ( units of r ) */
(PID.TID 0000.0001)                 5.000000000000000E+01,      /* K =  1 */
(PID.TID 0000.0001)                 7.000000000000000E+01,      /* K =  2 */
(PID.TID 0000.0001)                 1.000000000000000E+02,      /* K =  3 */
(PID.TID 0000.0001)                 1.400000000000000E+02,      /* K =  4 */
(PID.TID 0000.0001)                 1.900000000000000E+02,      /* K =  5 */
(PID.TID 0000.0001)                 2.400000000000000E+02,      /* K =  6 */
(PID.TID 0000.0001)                 2.900000000000000E+02,      /* K =  7 */
(PID.TID 0000.0001)                 3.400000000000000E+02,      /* K =  8 */
(PID.TID 0000.0001)                 3.900000000000000E+02,      /* K =  9 */
(PID.TID 0000.0001)                 4.400000000000000E+02,      /* K = 10 */
(PID.TID 0000.0001)                 4.900000000000000E+02,      /* K = 11 */
(PID.TID 0000.0001)                 5.400000000000000E+02,      /* K = 12 */
(PID.TID 0000.0001)                 5.900000000000000E+02,      /* K = 13 */
(PID.TID 0000.0001)                 6.400000000000000E+02,      /* K = 14 */
(PID.TID 0000.0001)                 6.900000000000000E+02       /* K = 15 */
(PID.TID 0000.0001)     ;
(PID.TID 0000.0001) delX =   /* U spacing ( m - cartesian, degrees - spherical ) */
(PID.TID 0000.0001)    90 @  4.000000000000000E+00              /* I =  1: 90 */
(PID.TID 0000.0001)     ;
(PID.TID 0000.0001) delY =   /* V spacing ( m - cartesian, degrees - spherical ) */
(PID.TID 0000.0001)    40 @  4.000000000000000E+00              /* J =  1: 40 */
(PID.TID 0000.0001)     ;
(PID.TID 0000.0001) phiMin =    /* South edge (ignored - cartesian, degrees - spherical ) */
(PID.TID 0000.0001)                -8.000000000000000E+01
(PID.TID 0000.0001)     ;
(PID.TID 0000.0001) thetaMin =    /* West edge ( ignored - cartesian, degrees - spherical ) */
(PID.TID 0000.0001)                 0.000000000000000E+00
(PID.TID 0000.0001)     ;
(PID.TID 0000.0001) rSphere =    /* Radius ( ignored - cartesian, m - spherical ) */
(PID.TID 0000.0001)                 6.370000000000000E+06
(PID.TID 0000.0001)     ;
(PID.TID 0000.0001) xcoord =   /* P-point X coord ( m - cartesian, degrees - spherical ) */
(PID.TID 0000.0001)                 2.000000000000000E+00,      /* I =  1 */
(PID.TID 0000.0001)                 6.000000000000000E+00,      /* I =  2 */
(PID.TID 0000.0001)                 1.000000000000000E+01,      /* I =  3 */
(PID.TID 0000.0001)                 1.400000000000000E+01,      /* I =  4 */
(PID.TID 0000.0001)                 1.800000000000000E+01,      /* I =  5 */
(PID.TID 0000.0001)                 2.200000000000000E+01,      /* I =  6 */
(PID.TID 0000.0001)                 2.600000000000000E+01,      /* I =  7 */
(PID.TID 0000.0001)                 3.000000000000000E+01,      /* I =  8 */
(PID.TID 0000.0001)                 3.400000000000000E+01,      /* I =  9 */
(PID.TID 0000.0001)                 3.800000000000000E+01,      /* I = 10 */
(PID.TID 0000.0001)                 4.200000000000000E+01,      /* I = 11 */
(PID.TID 0000.0001)                 4.600000000000000E+01,      /* I = 12 */
(PID.TID 0000.0001)                 5.000000000000000E+01,      /* I = 13 */
(PID.TID 0000.0001)                 5.400000000000000E+01,      /* I = 14 */
(PID.TID 0000.0001)                 5.800000000000000E+01,      /* I = 15 */
(PID.TID 0000.0001)                 6.200000000000000E+01,      /* I = 16 */
(PID.TID 0000.0001)                 6.600000000000000E+01,      /* I = 17 */
(PID.TID 0000.0001)                 7.000000000000000E+01,      /* I = 18 */
(PID.TID 0000.0001)                 7.400000000000000E+01,      /* I = 19 */
(PID.TID 0000.0001)                 7.800000000000000E+01,      /* I = 20 */
(PID.TID 0000.0001)                 8.200000000000000E+01,      /* I = 21 */
(PID.TID 0000.0001)                 8.600000000000000E+01,      /* I = 22 */
(PID.TID 0000.0001)                 9.000000000000000E+01,      /* I = 23 */
(PID.TID 0000.0001)                 9.400000000000000E+01,      /* I = 24 */
(PID.TID 0000.0001)                 9.800000000000000E+01,      /* I = 25 */
(PID.TID 0000.0001)                 1.020000000000000E+02,      /* I = 26 */
(PID.TID 0000.0001)                 1.060000000000000E+02,      /* I = 27 */
(PID.TID 0000.0001)                 1.100000000000000E+02,      /* I = 28 */
(PID.TID 0000.0001)                 1.140000000000000E+02,      /* I = 29 */
(PID.TID 0000.0001)                 1.180000000000000E+02,      /* I = 30 */
(PID.TID 0000.0001)                 1.220000000000000E+02,      /* I = 31 */
(PID.TID 0000.0001)                 1.260000000000000E+02,      /* I = 32 */
(PID.TID 0000.0001)                 1.300000000000000E+02,      /* I = 33 */
(PID.TID 0000.0001)                 1.340000000000000E+02,      /* I = 34 */
(PID.TID 0000.0001)                 1.380000000000000E+02,      /* I = 35 */
(PID.TID 0000.0001)                 1.420000000000000E+02,      /* I = 36 */
(PID.TID 0000.0001)                 1.460000000000000E+02,      /* I = 37 */
(PID.TID 0000.0001)                 1.500000000000000E+02,      /* I = 38 */
(PID.TID 0000.0001)                 1.540000000000000E+02,      /* I = 39 */
(PID.TID 0000.0001)                 1.580000000000000E+02,      /* I = 40 */
(PID.TID 0000.0001)                 1.620000000000000E+02,      /* I = 41 */
(PID.TID 0000.0001)                 1.660000000000000E+02,      /* I = 42 */
(PID.TID 0000.0001)                 1.700000000000000E+02,      /* I = 43 */
(PID.TID 0000.0001)                 1.740000000000000E+02,      /* I = 44 */
(PID.TID 0000.0001)                 1.780000000000000E+02,      /* I = 45 */
(PID.TID 0000.0001)                 1.820000000000000E+02,      /* I = 46 */
(PID.TID 0000.0001)                 1.860000000000000E+02,      /* I = 47 */
(PID.TID 0000.0001)                 1.900000000000000E+02,      /* I = 48 */
(PID.TID 0000.0001)                 1.940000000000000E+02,      /* I = 49 */
(PID.TID 0000.0001)                 1.980000000000000E+02,      /* I = 50 */
(PID.TID 0000.0001)                 2.020000000000000E+02,      /* I = 51 */
(PID.TID 0000.0001)                 2.060000000000000E+02,      /* I = 52 */
(PID.TID 0000.0001)                 2.100000000000000E+02,      /* I = 53 */
(PID.TID 0000.0001)                 2.140000000000000E+02,      /* I = 54 */
(PID.TID 0000.0001)                 2.180000000000000E+02,      /* I = 55 */
(PID.TID 0000.0001)                 2.220000000000000E+02,      /* I = 56 */
(PID.TID 0000.0001)                 2.260000000000000E+02,      /* I = 57 */
(PID.TID 0000.0001)                 2.300000000000000E+02,      /* I = 58 */
(PID.TID 0000.0001)                 2.340000000000000E+02,      /* I = 59 */
(PID.TID 0000.0001)                 2.380000000000000E+02,      /* I = 60 */
(PID.TID 0000.0001)                 2.420000000000000E+02,      /* I = 61 */
(PID.TID 0000.0001)                 2.460000000000000E+02,      /* I = 62 */
(PID.TID 0000.0001)                 2.500000000000000E+02,      /* I = 63 */
(PID.TID 0000.0001)                 2.540000000000000E+02,      /* I = 64 */
(PID.TID 0000.0001)                 2.580000000000000E+02,      /* I = 65 */
(PID.TID 0000.0001)                 2.620000000000000E+02,      /* I = 66 */
(PID.TID 0000.0001)                 2.660000000000000E+02,      /* I = 67 */
(PID.TID 0000.0001)                 2.700000000000000E+02,      /* I = 68 */
(PID.TID 0000.0001)                 2.740000000000000E+02,      /* I = 69 */
(PID.TID 0000.0001)                 2.780000000000000E+02,      /* I = 70 */
(PID.TID 0000.0001)                 2.820000000000000E+02,      /* I = 71 */
(PID.TID 0000.0001)                 2.860000000000000E+02,      /* I = 72 */
(PID.TID 0000.0001)                 2.900000000000000E+02,      /* I = 73 */
(PID.TID 0000.0001)                 2.940000000000000E+02,      /* I = 74 */
(PID.TID 0000.0001)                 2.980000000000000E+02,      /* I = 75 */
(PID.TID 0000.0001)                 3.020000000000000E+02,      /* I = 76 */
(PID.TID 0000.0001)                 3.060000000000000E+02,      /* I = 77 */
(PID.TID 0000.0001)                 3.100000000000000E+02,      /* I = 78 */
(PID.TID 0000.0001)                 3.140000000000000E+02,      /* I = 79 */
(PID.TID 0000.0001)                 3.180000000000000E+02,      /* I = 80 */
(PID.TID 0000.0001)                 3.220000000000000E+02,      /* I = 81 */
(PID.TID 0000.0001)                 3.260000000000000E+02,      /* I = 82 */
(PID.TID 0000.0001)                 3.300000000000000E+02,      /* I = 83 */
(PID.TID 0000.0001)                 3.340000000000000E+02,      /* I = 84 */
(PID.TID 0000.0001)                 3.380000000000000E+02,      /* I = 85 */
(PID.TID 0000.0001)                 3.420000000000000E+02,      /* I = 86 */
(PID.TID 0000.0001)                 3.460000000000000E+02,      /* I = 87 */
(PID.TID 0000.0001)                 3.500000000000000E+02,      /* I = 88 */
(PID.TID 0000.0001)                 3.540000000000000E+02,      /* I = 89 */
(PID.TID 0000.0001)                 3.580000000000000E+02       /* I = 90 */
(PID.TID 0000.0001)     ;
(PID.TID 0000.0001) ycoord =   /* P-point Y coord ( m - cartesian, degrees - spherical ) */
(PID.TID 0000.0001)                -7.800000000000000E+01,      /* J =  1 */
(PID.TID 0000.0001)                -7.400000000000000E+01,      /* J =  2 */
(PID.TID 0000.0001)                -7.000000000000000E+01,      /* J =  3 */
(PID.TID 0000.0001)                -6.600000000000000E+01,      /* J =  4 */
(PID.TID 0000.0001)                -6.200000000000000E+01,      /* J =  5 */
(PID.TID 0000.0001)                -5.800000000000000E+01,      /* J =  6 */
(PID.TID 0000.0001)                -5.400000000000000E+01,      /* J =  7 */
(PID.TID 0000.0001)                -5.000000000000000E+01,      /* J =  8 */
(PID.TID 0000.0001)                -4.600000000000000E+01,      /* J =  9 */
(PID.TID 0000.0001)                -4.200000000000000E+01,      /* J = 10 */
(PID.TID 0000.0001)                -3.800000000000000E+01,      /* J = 11 */
(PID.TID 0000.0001)                -3.400000000000000E+01,      /* J = 12 */
(PID.TID 0000.0001)                -3.000000000000000E+01,      /* J = 13 */
(PID.TID 0000.0001)                -2.600000000000000E+01,      /* J = 14 */
(PID.TID 0000.0001)                -2.200000000000000E+01,      /* J = 15 */
(PID.TID 0000.0001)                -1.800000000000000E+01,      /* J = 16 */
(PID.TID 0000.0001)                -1.400000000000000E+01,      /* J = 17 */
(PID.TID 0000.0001)                -1.000000000000000E+01,      /* J = 18 */
(PID.TID 0000.0001)                -6.000000000000000E+00,      /* J = 19 */
(PID.TID 0000.0001)                -2.000000000000000E+00,      /* J = 20 */
(PID.TID 0000.0001)                 2.000000000000000E+00,      /* J = 21 */
(PID.TID 0000.0001)                 6.000000000000000E+00,      /* J = 22 */
(PID.TID 0000.0001)                 1.000000000000000E+01,      /* J = 23 */
(PID.TID 0000.0001)                 1.400000000000000E+01,      /* J = 24 */
(PID.TID 0000.0001)                 1.800000000000000E+01,      /* J = 25 */
(PID.TID 0000.0001)                 2.200000000000000E+01,      /* J = 26 */
(PID.TID 0000.0001)                 2.600000000000000E+01,      /* J = 27 */
(PID.TID 0000.0001)                 3.000000000000000E+01,      /* J = 28 */
(PID.TID 0000.0001)                 3.400000000000000E+01,      /* J = 29 */
(PID.TID 0000.0001)                 3.800000000000000E+01,      /* J = 30 */
(PID.TID 0000.0001)                 4.200000000000000E+01,      /* J = 31 */
(PID.TID 0000.0001)                 4.600000000000000E+01,      /* J = 32 */
(PID.TID 0000.0001)                 5.000000000000000E+01,      /* J = 33 */
(PID.TID 0000.0001)                 5.400000000000000E+01,      /* J = 34 */
(PID.TID 0000.0001)                 5.800000000000000E+01,      /* J = 35 */
(PID.TID 0000.0001)                 6.200000000000000E+01,      /* J = 36 */
(PID.TID 0000.0001)                 6.600000000000000E+01,      /* J = 37 */
(PID.TID 0000.0001)                 7.000000000000000E+01,      /* J = 38 */
(PID.TID 0000.0001)                 7.400000000000000E+01,      /* J = 39 */
(PID.TID 0000.0001)                 7.800000000000000E+01       /* J = 40 */
(PID.TID 0000.0001)     ;
(PID.TID 0000.0001) rcoord =   /* P-point R coordinate (  units of r ) */
(PID.TID 0000.0001)                -2.500000000000000E+01,      /* K =  1 */
(PID.TID 0000.0001)                -8.500000000000000E+01,      /* K =  2 */
(PID.TID 0000.0001)                -1.700000000000000E+02,      /* K =  3 */
(PID.TID 0000.0001)                -2.900000000000000E+02,      /* K =  4 */
(PID.TID 0000.0001)                -4.550000000000000E+02,      /* K =  5 */
(PID.TID 0000.0001)                -6.700000000000000E+02,      /* K =  6 */
(PID.TID 0000.0001)                -9.350000000000000E+02,      /* K =  7 */
(PID.TID 0000.0001)                -1.250000000000000E+03,      /* K =  8 */
(PID.TID 0000.0001)                -1.615000000000000E+03,      /* K =  9 */
(PID.TID 0000.0001)                -2.030000000000000E+03,      /* K = 10 */
(PID.TID 0000.0001)                -2.495000000000000E+03,      /* K = 11 */
(PID.TID 0000.0001)                -3.010000000000000E+03,      /* K = 12 */
(PID.TID 0000.0001)                -3.575000000000000E+03,      /* K = 13 */
(PID.TID 0000.0001)                -4.190000000000000E+03,      /* K = 14 */
(PID.TID 0000.0001)                -4.855000000000000E+03       /* K = 15 */
(PID.TID 0000.0001)     ;
(PID.TID 0000.0001) rF =   /* W-Interf. R coordinate (  units of r ) */
(PID.TID 0000.0001)                 0.000000000000000E+00,      /* K =  1 */
(PID.TID 0000.0001)                -5.000000000000000E+01,      /* K =  2 */
(PID.TID 0000.0001)                -1.200000000000000E+02,      /* K =  3 */
(PID.TID 0000.0001)                -2.200000000000000E+02,      /* K =  4 */
(PID.TID 0000.0001)                -3.600000000000000E+02,      /* K =  5 */
(PID.TID 0000.0001)                -5.500000000000000E+02,      /* K =  6 */
(PID.TID 0000.0001)                -7.900000000000000E+02,      /* K =  7 */
(PID.TID 0000.0001)                -1.080000000000000E+03,      /* K =  8 */
(PID.TID 0000.0001)                -1.420000000000000E+03,      /* K =  9 */
(PID.TID 0000.0001)                -1.810000000000000E+03,      /* K = 10 */
(PID.TID 0000.0001)                -2.250000000000000E+03,      /* K = 11 */
(PID.TID 0000.0001)                -2.740000000000000E+03,      /* K = 12 */
(PID.TID 0000.0001)                -3.280000000000000E+03,      /* K = 13 */
(PID.TID 0000.0001)                -3.870000000000000E+03,      /* K = 14 */
(PID.TID 0000.0001)                -4.510000000000000E+03,      /* K = 15 */
(PID.TID 0000.0001)                -5.200000000000000E+03       /* K = 16 */
(PID.TID 0000.0001)     ;
(PID.TID 0000.0001) dBdrRef = /* Vertical gradient of reference boyancy [(m/s/r)^2)] */
(PID.TID 0000.0001)    15 @  0.000000000000000E+00              /* K =  1: 15 */
(PID.TID 0000.0001)     ;
(PID.TID 0000.0001) dxF =  /* dxF(:,1,:,1) ( units: m ) */
(PID.TID 0000.0001)    90 @  9.246038586187513E+04              /* I =  1: 90 */
(PID.TID 0000.0001)     ;
(PID.TID 0000.0001) dxF =  /* dxF(1,:,1,:) ( units: m ) */
(PID.TID 0000.0001)                 9.246038586187513E+04,      /* J =  1 */
(PID.TID 0000.0001)                 1.225786591246834E+05,      /* J =  2 */
(PID.TID 0000.0001)                 1.520997414818001E+05,      /* J =  3 */
(PID.TID 0000.0001)                 1.808798091874300E+05,      /* J =  4 */
(PID.TID 0000.0001)                 2.087786486446736E+05,      /* J =  5 */
(PID.TID 0000.0001)                 2.356603395120765E+05,      /* J =  6 */
(PID.TID 0000.0001)                 2.613939168938713E+05,      /* J =  7 */
(PID.TID 0000.0001)                 2.858540093877838E+05,      /* J =  8 */
(PID.TID 0000.0001)                 3.089214498819034E+05,      /* J =  9 */
(PID.TID 0000.0001)                 3.304838561248741E+05,      /* J = 10 */
(PID.TID 0000.0001)                 3.504361782409254E+05,      /* J = 11 */
(PID.TID 0000.0001)                 3.686812105223082E+05,      /* J = 12 */
(PID.TID 0000.0001)                 3.851300650057323E+05,      /* J = 13 */
(PID.TID 0000.0001)                 3.997026045255871E+05,      /* J = 14 */
(PID.TID 0000.0001)                 4.123278331341585E+05,      /* J = 15 */
(PID.TID 0000.0001)                 4.229442419867491E+05,      /* J = 16 */
(PID.TID 0000.0001)                 4.315001090065870E+05,      /* J = 17 */
(PID.TID 0000.0001)                 4.379537508695838E+05,      /* J = 18 */
(PID.TID 0000.0001)                 4.422737260813012E+05,      /* J = 19 */
(PID.TID 0000.0001)     2 @  4.444389881567502E+05,             /* J = 20: 21 */
(PID.TID 0000.0001)                 4.422737260813012E+05,      /* J = 22 */
(PID.TID 0000.0001)                 4.379537508695838E+05,      /* J = 23 */
(PID.TID 0000.0001)                 4.315001090065870E+05,      /* J = 24 */
(PID.TID 0000.0001)                 4.229442419867491E+05,      /* J = 25 */
(PID.TID 0000.0001)                 4.123278331341585E+05,      /* J = 26 */
(PID.TID 0000.0001)                 3.997026045255871E+05,      /* J = 27 */
(PID.TID 0000.0001)                 3.851300650057323E+05,      /* J = 28 */
(PID.TID 0000.0001)                 3.686812105223082E+05,      /* J = 29 */
(PID.TID 0000.0001)                 3.504361782409254E+05,      /* J = 30 */
(PID.TID 0000.0001)                 3.304838561248741E+05,      /* J = 31 */
(PID.TID 0000.0001)                 3.089214498819034E+05,      /* J = 32 */
(PID.TID 0000.0001)                 2.858540093877838E+05,      /* J = 33 */
(PID.TID 0000.0001)                 2.613939168938713E+05,      /* J = 34 */
(PID.TID 0000.0001)                 2.356603395120765E+05,      /* J = 35 */
(PID.TID 0000.0001)                 2.087786486446736E+05,      /* J = 36 */
(PID.TID 0000.0001)                 1.808798091874300E+05,      /* J = 37 */
(PID.TID 0000.0001)                 1.520997414818001E+05,      /* J = 38 */
(PID.TID 0000.0001)                 1.225786591246834E+05,      /* J = 39 */
(PID.TID 0000.0001)                 9.246038586187513E+04       /* J = 40 */
(PID.TID 0000.0001)     ;
(PID.TID 0000.0001) dyF =  /* dyF(:,1,:,1) ( units: m ) */
(PID.TID 0000.0001)    90 @  4.447098934081552E+05              /* I =  1: 90 */
(PID.TID 0000.0001)     ;
(PID.TID 0000.0001) dyF =  /* dyF(1,:,1,:) ( units: m ) */
(PID.TID 0000.0001)    40 @  4.447098934081552E+05              /* J =  1: 40 */
(PID.TID 0000.0001)     ;
(PID.TID 0000.0001) dxG =  /* dxG(:,1,:,1) ( units: m ) */
(PID.TID 0000.0001)    90 @  7.722306258078101E+04              /* I =  1: 90 */
(PID.TID 0000.0001)     ;
(PID.TID 0000.0001) dxG =  /* dxG(1,:,1,:) ( units: m ) */
(PID.TID 0000.0001)                 7.722306258078101E+04,      /* J =  1 */
(PID.TID 0000.0001)                 1.075850604052271E+05,      /* J =  2 */
(PID.TID 0000.0001)                 1.374229146297914E+05,      /* J =  3 */
(PID.TID 0000.0001)                 1.665912582279823E+05,      /* J =  4 */
(PID.TID 0000.0001)                 1.949479859617814E+05,      /* J =  5 */
(PID.TID 0000.0001)                 2.223549467040777E+05,      /* J =  6 */
(PID.TID 0000.0001)                 2.486786164970726E+05,      /* J =  7 */
(PID.TID 0000.0001)                 2.737907490675810E+05,      /* J =  8 */
(PID.TID 0000.0001)                 2.975690006299821E+05,      /* J =  9 */
(PID.TID 0000.0001)                 3.198975259328452E+05,      /* J = 10 */
(PID.TID 0000.0001)                 3.406675426453503E+05,      /* J = 11 */
(PID.TID 0000.0001)                 3.597778613338690E+05,      /* J = 12 */
(PID.TID 0000.0001)                 3.771353784467131E+05,      /* J = 13 */
(PID.TID 0000.0001)                 3.926555299052806E+05,      /* J = 14 */
(PID.TID 0000.0001)                 4.062627030917454E+05,      /* J = 15 */
(PID.TID 0000.0001)                 4.178906052261313E+05,      /* J = 16 */
(PID.TID 0000.0001)                 4.274825863380723E+05,      /* J = 17 */
(PID.TID 0000.0001)                 4.349919152597734E+05,      /* J = 18 */
(PID.TID 0000.0001)                 4.403820072955634E+05,      /* J = 19 */
(PID.TID 0000.0001)                 4.436266024588540E+05,      /* J = 20 */
(PID.TID 0000.0001)                 4.447098934081552E+05,      /* J = 21 */
(PID.TID 0000.0001)                 4.436266024588540E+05,      /* J = 22 */
(PID.TID 0000.0001)                 4.403820072955634E+05,      /* J = 23 */
(PID.TID 0000.0001)                 4.349919152597734E+05,      /* J = 24 */
(PID.TID 0000.0001)                 4.274825863380723E+05,      /* J = 25 */
(PID.TID 0000.0001)                 4.178906052261313E+05,      /* J = 26 */
(PID.TID 0000.0001)                 4.062627030917454E+05,      /* J = 27 */
(PID.TID 0000.0001)                 3.926555299052806E+05,      /* J = 28 */
(PID.TID 0000.0001)                 3.771353784467131E+05,      /* J = 29 */
(PID.TID 0000.0001)                 3.597778613338690E+05,      /* J = 30 */
(PID.TID 0000.0001)                 3.406675426453503E+05,      /* J = 31 */
(PID.TID 0000.0001)                 3.198975259328452E+05,      /* J = 32 */
(PID.TID 0000.0001)                 2.975690006299821E+05,      /* J = 33 */
(PID.TID 0000.0001)                 2.737907490675810E+05,      /* J = 34 */
(PID.TID 0000.0001)                 2.486786164970726E+05,      /* J = 35 */
(PID.TID 0000.0001)                 2.223549467040777E+05,      /* J = 36 */
(PID.TID 0000.0001)                 1.949479859617814E+05,      /* J = 37 */
(PID.TID 0000.0001)                 1.665912582279823E+05,      /* J = 38 */
(PID.TID 0000.0001)                 1.374229146297914E+05,      /* J = 39 */
(PID.TID 0000.0001)                 1.075850604052271E+05       /* J = 40 */
(PID.TID 0000.0001)     ;
(PID.TID 0000.0001) dyG =  /* dyG(:,1,:,1) ( units: m ) */
(PID.TID 0000.0001)    90 @  4.447098934081552E+05              /* I =  1: 90 */
(PID.TID 0000.0001)     ;
(PID.TID 0000.0001) dyG =  /* dyG(1,:,1,:) ( units: m ) */
(PID.TID 0000.0001)    40 @  4.447098934081552E+05              /* J =  1: 40 */
(PID.TID 0000.0001)     ;
(PID.TID 0000.0001) dxC =  /* dxC(:,1,:,1) ( units: m ) */
(PID.TID 0000.0001)    90 @  9.246038586187513E+04              /* I =  1: 90 */
(PID.TID 0000.0001)     ;
(PID.TID 0000.0001) dxC =  /* dxC(1,:,1,:) ( units: m ) */
(PID.TID 0000.0001)                 9.246038586187513E+04,      /* J =  1 */
(PID.TID 0000.0001)                 1.225786591246834E+05,      /* J =  2 */
(PID.TID 0000.0001)                 1.520997414818001E+05,      /* J =  3 */
(PID.TID 0000.0001)                 1.808798091874300E+05,      /* J =  4 */
(PID.TID 0000.0001)                 2.087786486446736E+05,      /* J =  5 */
(PID.TID 0000.0001)                 2.356603395120765E+05,      /* J =  6 */
(PID.TID 0000.0001)                 2.613939168938713E+05,      /* J =  7 */
(PID.TID 0000.0001)                 2.858540093877838E+05,      /* J =  8 */
(PID.TID 0000.0001)                 3.089214498819034E+05,      /* J =  9 */
(PID.TID 0000.0001)                 3.304838561248741E+05,      /* J = 10 */
(PID.TID 0000.0001)                 3.504361782409254E+05,      /* J = 11 */
(PID.TID 0000.0001)                 3.686812105223082E+05,      /* J = 12 */
(PID.TID 0000.0001)                 3.851300650057323E+05,      /* J = 13 */
(PID.TID 0000.0001)                 3.997026045255871E+05,      /* J = 14 */
(PID.TID 0000.0001)                 4.123278331341585E+05,      /* J = 15 */
(PID.TID 0000.0001)                 4.229442419867491E+05,      /* J = 16 */
(PID.TID 0000.0001)                 4.315001090065870E+05,      /* J = 17 */
(PID.TID 0000.0001)                 4.379537508695838E+05,      /* J = 18 */
(PID.TID 0000.0001)                 4.422737260813012E+05,      /* J = 19 */
(PID.TID 0000.0001)     2 @  4.444389881567502E+05,             /* J = 20: 21 */
(PID.TID 0000.0001)                 4.422737260813012E+05,      /* J = 22 */
(PID.TID 0000.0001)                 4.379537508695838E+05,      /* J = 23 */
(PID.TID 0000.0001)                 4.315001090065870E+05,      /* J = 24 */
(PID.TID 0000.0001)                 4.229442419867491E+05,      /* J = 25 */
(PID.TID 0000.0001)                 4.123278331341585E+05,      /* J = 26 */
(PID.TID 0000.0001)                 3.997026045255871E+05,      /* J = 27 */
(PID.TID 0000.0001)                 3.851300650057323E+05,      /* J = 28 */
(PID.TID 0000.0001)                 3.686812105223082E+05,      /* J = 29 */
(PID.TID 0000.0001)                 3.504361782409254E+05,      /* J = 30 */
(PID.TID 0000.0001)                 3.304838561248741E+05,      /* J = 31 */
(PID.TID 0000.0001)                 3.089214498819034E+05,      /* J = 32 */
(PID.TID 0000.0001)                 2.858540093877838E+05,      /* J = 33 */
(PID.TID 0000.0001)                 2.613939168938713E+05,      /* J = 34 */
(PID.TID 0000.0001)                 2.356603395120765E+05,      /* J = 35 */
(PID.TID 0000.0001)                 2.087786486446736E+05,      /* J = 36 */
(PID.TID 0000.0001)                 1.808798091874300E+05,      /* J = 37 */
(PID.TID 0000.0001)                 1.520997414818001E+05,      /* J = 38 */
(PID.TID 0000.0001)                 1.225786591246834E+05,      /* J = 39 */
(PID.TID 0000.0001)                 9.246038586187513E+04       /* J = 40 */
(PID.TID 0000.0001)     ;
(PID.TID 0000.0001) dyC =  /* dyC(:,1,:,1) ( units: m ) */
(PID.TID 0000.0001)    90 @  4.447098934081552E+05              /* I =  1: 90 */
(PID.TID 0000.0001)     ;
(PID.TID 0000.0001) dyC =  /* dyC(1,:,1,:) ( units: m ) */
(PID.TID 0000.0001)    40 @  4.447098934081552E+05              /* J =  1: 40 */
(PID.TID 0000.0001)     ;
(PID.TID 0000.0001) dxV =  /* dxV(:,1,:,1) ( units: m ) */
(PID.TID 0000.0001)    90 @  7.722306258078101E+04              /* I =  1: 90 */
(PID.TID 0000.0001)     ;
(PID.TID 0000.0001) dxV =  /* dxV(1,:,1,:) ( units: m ) */
(PID.TID 0000.0001)                 7.722306258078101E+04,      /* J =  1 */
(PID.TID 0000.0001)                 1.075850604052271E+05,      /* J =  2 */
(PID.TID 0000.0001)                 1.374229146297914E+05,      /* J =  3 */
(PID.TID 0000.0001)                 1.665912582279823E+05,      /* J =  4 */
(PID.TID 0000.0001)                 1.949479859617814E+05,      /* J =  5 */
(PID.TID 0000.0001)                 2.223549467040777E+05,      /* J =  6 */
(PID.TID 0000.0001)                 2.486786164970726E+05,      /* J =  7 */
(PID.TID 0000.0001)                 2.737907490675810E+05,      /* J =  8 */
(PID.TID 0000.0001)                 2.975690006299821E+05,      /* J =  9 */
(PID.TID 0000.0001)                 3.198975259328452E+05,      /* J = 10 */
(PID.TID 0000.0001)                 3.406675426453503E+05,      /* J = 11 */
(PID.TID 0000.0001)                 3.597778613338690E+05,      /* J = 12 */
(PID.TID 0000.0001)                 3.771353784467131E+05,      /* J = 13 */
(PID.TID 0000.0001)                 3.926555299052806E+05,      /* J = 14 */
(PID.TID 0000.0001)                 4.062627030917454E+05,      /* J = 15 */
(PID.TID 0000.0001)                 4.178906052261313E+05,      /* J = 16 */
(PID.TID 0000.0001)                 4.274825863380723E+05,      /* J = 17 */
(PID.TID 0000.0001)                 4.349919152597734E+05,      /* J = 18 */
(PID.TID 0000.0001)                 4.403820072955634E+05,      /* J = 19 */
(PID.TID 0000.0001)                 4.436266024588540E+05,      /* J = 20 */
(PID.TID 0000.0001)                 4.447098934081552E+05,      /* J = 21 */
(PID.TID 0000.0001)                 4.436266024588540E+05,      /* J = 22 */
(PID.TID 0000.0001)                 4.403820072955634E+05,      /* J = 23 */
(PID.TID 0000.0001)                 4.349919152597734E+05,      /* J = 24 */
(PID.TID 0000.0001)                 4.274825863380723E+05,      /* J = 25 */
(PID.TID 0000.0001)                 4.178906052261313E+05,      /* J = 26 */
(PID.TID 0000.0001)                 4.062627030917454E+05,      /* J = 27 */
(PID.TID 0000.0001)                 3.926555299052806E+05,      /* J = 28 */
(PID.TID 0000.0001)                 3.771353784467131E+05,      /* J = 29 */
(PID.TID 0000.0001)                 3.597778613338690E+05,      /* J = 30 */
(PID.TID 0000.0001)                 3.406675426453503E+05,      /* J = 31 */
(PID.TID 0000.0001)                 3.198975259328452E+05,      /* J = 32 */
(PID.TID 0000.0001)                 2.975690006299821E+05,      /* J = 33 */
(PID.TID 0000.0001)                 2.737907490675810E+05,      /* J = 34 */
(PID.TID 0000.0001)                 2.486786164970726E+05,      /* J = 35 */
(PID.TID 0000.0001)                 2.223549467040777E+05,      /* J = 36 */
(PID.TID 0000.0001)                 1.949479859617814E+05,      /* J = 37 */
(PID.TID 0000.0001)                 1.665912582279823E+05,      /* J = 38 */
(PID.TID 0000.0001)                 1.374229146297914E+05,      /* J = 39 */
(PID.TID 0000.0001)                 1.075850604052271E+05       /* J = 40 */
(PID.TID 0000.0001)     ;
(PID.TID 0000.0001) dyU =  /* dyU(:,1,:,1) ( units: m ) */
(PID.TID 0000.0001)    90 @  4.447098934081552E+05              /* I =  1: 90 */
(PID.TID 0000.0001)     ;
(PID.TID 0000.0001) dyU =  /* dyU(1,:,1,:) ( units: m ) */
(PID.TID 0000.0001)    40 @  4.447098934081552E+05              /* J =  1: 40 */
(PID.TID 0000.0001)     ;
(PID.TID 0000.0001) rA  =  /* rA (:,1,:,1) ( units: m^2 ) */
(PID.TID 0000.0001)    90 @  4.110969866729047E+10              /* I =  1: 90 */
(PID.TID 0000.0001)     ;
(PID.TID 0000.0001) rA  =  /* rA (1,:,1,:) ( units: m^2 ) */
(PID.TID 0000.0001)                 4.110969866729047E+10,      /* J =  1 */
(PID.TID 0000.0001)                 5.450087291636665E+10,      /* J =  2 */
(PID.TID 0000.0001)                 6.762652439100235E+10,      /* J =  3 */
(PID.TID 0000.0001)                 8.042270623659998E+10,      /* J =  4 */
(PID.TID 0000.0001)                 9.282707674147523E+10,      /* J =  5 */
(PID.TID 0000.0001)                 1.047792030594103E+11,      /* J =  6 */
(PID.TID 0000.0001)                 1.162208556324093E+11,      /* J =  7 */
(PID.TID 0000.0001)                 1.270962918792468E+11,      /* J =  8 */
(PID.TID 0000.0001)                 1.373525277677229E+11,      /* J =  9 */
(PID.TID 0000.0001)                 1.469395959475426E+11,      /* J = 10 */
(PID.TID 0000.0001)                 1.558107891862220E+11,      /* J = 11 */
(PID.TID 0000.0001)                 1.639228879220326E+11,      /* J = 12 */
(PID.TID 0000.0001)                 1.712363708253573E+11,      /* J = 13 */
(PID.TID 0000.0001)                 1.777156073426415E+11,      /* J = 14 */
(PID.TID 0000.0001)                 1.833290312848623E+11,      /* J = 15 */
(PID.TID 0000.0001)                 1.880492946148330E+11,      /* J = 16 */
(PID.TID 0000.0001)                 1.918534006840893E+11,      /* J = 17 */
(PID.TID 0000.0001)                 1.947228162702492E+11,      /* J = 18 */
(PID.TID 0000.0001)                 1.966435618690094E+11,      /* J = 19 */
(PID.TID 0000.0001)     2 @  1.976062798008856E+11,             /* J = 20: 21 */
(PID.TID 0000.0001)                 1.966435618690094E+11,      /* J = 22 */
(PID.TID 0000.0001)                 1.947228162702492E+11,      /* J = 23 */
(PID.TID 0000.0001)                 1.918534006840893E+11,      /* J = 24 */
(PID.TID 0000.0001)                 1.880492946148330E+11,      /* J = 25 */
(PID.TID 0000.0001)                 1.833290312848623E+11,      /* J = 26 */
(PID.TID 0000.0001)                 1.777156073426415E+11,      /* J = 27 */
(PID.TID 0000.0001)                 1.712363708253573E+11,      /* J = 28 */
(PID.TID 0000.0001)                 1.639228879220326E+11,      /* J = 29 */
(PID.TID 0000.0001)                 1.558107891862220E+11,      /* J = 30 */
(PID.TID 0000.0001)                 1.469395959475426E+11,      /* J = 31 */
(PID.TID 0000.0001)                 1.373525277677229E+11,      /* J = 32 */
(PID.TID 0000.0001)                 1.270962918792468E+11,      /* J = 33 */
(PID.TID 0000.0001)                 1.162208556324093E+11,      /* J = 34 */
(PID.TID 0000.0001)                 1.047792030594103E+11,      /* J = 35 */
(PID.TID 0000.0001)                 9.282707674147523E+10,      /* J = 36 */
(PID.TID 0000.0001)                 8.042270623659998E+10,      /* J = 37 */
(PID.TID 0000.0001)                 6.762652439100235E+10,      /* J = 38 */
(PID.TID 0000.0001)                 5.450087291636665E+10,      /* J = 39 */
(PID.TID 0000.0001)                 4.110969866729047E+10       /* J = 40 */
(PID.TID 0000.0001)     ;
(PID.TID 0000.0001) rAw =  /* rAw(:,1,:,1) ( units: m^2 ) */
(PID.TID 0000.0001)    90 @  4.110969866729047E+10              /* I =  1: 90 */
(PID.TID 0000.0001)     ;
(PID.TID 0000.0001) rAw =  /* rAw(1,:,1,:) ( units: m^2 ) */
(PID.TID 0000.0001)                 4.110969866729047E+10,      /* J =  1 */
(PID.TID 0000.0001)                 5.450087291636665E+10,      /* J =  2 */
(PID.TID 0000.0001)                 6.762652439100235E+10,      /* J =  3 */
(PID.TID 0000.0001)                 8.042270623659998E+10,      /* J =  4 */
(PID.TID 0000.0001)                 9.282707674147523E+10,      /* J =  5 */
(PID.TID 0000.0001)                 1.047792030594103E+11,      /* J =  6 */
(PID.TID 0000.0001)                 1.162208556324093E+11,      /* J =  7 */
(PID.TID 0000.0001)                 1.270962918792468E+11,      /* J =  8 */
(PID.TID 0000.0001)                 1.373525277677229E+11,      /* J =  9 */
(PID.TID 0000.0001)                 1.469395959475426E+11,      /* J = 10 */
(PID.TID 0000.0001)                 1.558107891862220E+11,      /* J = 11 */
(PID.TID 0000.0001)                 1.639228879220326E+11,      /* J = 12 */
(PID.TID 0000.0001)                 1.712363708253573E+11,      /* J = 13 */
(PID.TID 0000.0001)                 1.777156073426415E+11,      /* J = 14 */
(PID.TID 0000.0001)                 1.833290312848623E+11,      /* J = 15 */
(PID.TID 0000.0001)                 1.880492946148330E+11,      /* J = 16 */
(PID.TID 0000.0001)                 1.918534006840893E+11,      /* J = 17 */
(PID.TID 0000.0001)                 1.947228162702492E+11,      /* J = 18 */
(PID.TID 0000.0001)                 1.966435618690094E+11,      /* J = 19 */
(PID.TID 0000.0001)     2 @  1.976062798008856E+11,             /* J = 20: 21 */
(PID.TID 0000.0001)                 1.966435618690094E+11,      /* J = 22 */
(PID.TID 0000.0001)                 1.947228162702492E+11,      /* J = 23 */
(PID.TID 0000.0001)                 1.918534006840893E+11,      /* J = 24 */
(PID.TID 0000.0001)                 1.880492946148330E+11,      /* J = 25 */
(PID.TID 0000.0001)                 1.833290312848623E+11,      /* J = 26 */
(PID.TID 0000.0001)                 1.777156073426415E+11,      /* J = 27 */
(PID.TID 0000.0001)                 1.712363708253573E+11,      /* J = 28 */
(PID.TID 0000.0001)                 1.639228879220326E+11,      /* J = 29 */
(PID.TID 0000.0001)                 1.558107891862220E+11,      /* J = 30 */
(PID.TID 0000.0001)                 1.469395959475426E+11,      /* J = 31 */
(PID.TID 0000.0001)                 1.373525277677229E+11,      /* J = 32 */
(PID.TID 0000.0001)                 1.270962918792468E+11,      /* J = 33 */
(PID.TID 0000.0001)                 1.162208556324093E+11,      /* J = 34 */
(PID.TID 0000.0001)                 1.047792030594103E+11,      /* J = 35 */
(PID.TID 0000.0001)                 9.282707674147523E+10,      /* J = 36 */
(PID.TID 0000.0001)                 8.042270623659998E+10,      /* J = 37 */
(PID.TID 0000.0001)                 6.762652439100235E+10,      /* J = 38 */
(PID.TID 0000.0001)                 5.450087291636665E+10,      /* J = 39 */
(PID.TID 0000.0001)                 4.110969866729047E+10       /* J = 40 */
(PID.TID 0000.0001)     ;
(PID.TID 0000.0001) rAs =  /* rAs(:,1,:,1) ( units: m^2 ) */
(PID.TID 0000.0001)    90 @  3.433488626798250E+10              /* I =  1: 90 */
(PID.TID 0000.0001)     ;
(PID.TID 0000.0001) rAs =  /* rAs(1,:,1,:) ( units: m^2 ) */
(PID.TID 0000.0001)                 3.433488626798250E+10,      /* J =  1 */
(PID.TID 0000.0001)                 4.783442523123625E+10,      /* J =  2 */
(PID.TID 0000.0001)                 6.110091968306414E+10,      /* J =  3 */
(PID.TID 0000.0001)                 7.406973659603818E+10,      /* J =  4 */
(PID.TID 0000.0001)                 8.667769319778079E+10,      /* J =  5 */
(PID.TID 0000.0001)                 9.886336479107463E+10,      /* J =  6 */
(PID.TID 0000.0001)                 1.105673840088173E+11,      /* J =  7 */
(PID.TID 0000.0001)                 1.217327300458638E+11,      /* J =  8 */
(PID.TID 0000.0001)                 1.323050064586578E+11,      /* J =  9 */
(PID.TID 0000.0001)                 1.422327061792377E+11,      /* J = 10 */
(PID.TID 0000.0001)                 1.514674624524945E+11,      /* J = 11 */
(PID.TID 0000.0001)                 1.599642844741385E+11,      /* J = 12 */
(PID.TID 0000.0001)                 1.676817765813788E+11,      /* J = 13 */
(PID.TID 0000.0001)                 1.745823399284268E+11,      /* J = 14 */
(PID.TID 0000.0001)                 1.806323556642996E+11,      /* J = 15 */
(PID.TID 0000.0001)                 1.858023487204767E+11,      /* J = 16 */
(PID.TID 0000.0001)                 1.900671314104743E+11,      /* J = 17 */
(PID.TID 0000.0001)                 1.934059261417216E+11,      /* J = 18 */
(PID.TID 0000.0001)                 1.958024666419019E+11,      /* J = 19 */
(PID.TID 0000.0001)                 1.972450772065981E+11,      /* J = 20 */
(PID.TID 0000.0001)                 1.977267295821495E+11,      /* J = 21 */
(PID.TID 0000.0001)                 1.972450772065981E+11,      /* J = 22 */
(PID.TID 0000.0001)                 1.958024666419019E+11,      /* J = 23 */
(PID.TID 0000.0001)                 1.934059261417216E+11,      /* J = 24 */
(PID.TID 0000.0001)                 1.900671314104743E+11,      /* J = 25 */
(PID.TID 0000.0001)                 1.858023487204767E+11,      /* J = 26 */
(PID.TID 0000.0001)                 1.806323556642996E+11,      /* J = 27 */
(PID.TID 0000.0001)                 1.745823399284268E+11,      /* J = 28 */
(PID.TID 0000.0001)                 1.676817765813788E+11,      /* J = 29 */
(PID.TID 0000.0001)                 1.599642844741385E+11,      /* J = 30 */
(PID.TID 0000.0001)                 1.514674624524945E+11,      /* J = 31 */
(PID.TID 0000.0001)                 1.422327061792377E+11,      /* J = 32 */
(PID.TID 0000.0001)                 1.323050064586578E+11,      /* J = 33 */
(PID.TID 0000.0001)                 1.217327300458638E+11,      /* J = 34 */
(PID.TID 0000.0001)                 1.105673840088173E+11,      /* J = 35 */
(PID.TID 0000.0001)                 9.886336479107463E+10,      /* J = 36 */
(PID.TID 0000.0001)                 8.667769319778079E+10,      /* J = 37 */
(PID.TID 0000.0001)                 7.406973659603818E+10,      /* J = 38 */
(PID.TID 0000.0001)                 6.110091968306414E+10,      /* J = 39 */
(PID.TID 0000.0001)                 4.783442523123625E+10       /* J = 40 */
(PID.TID 0000.0001)     ;
(PID.TID 0000.0001) globalArea = /* Integrated horizontal Area (m^2) */
(PID.TID 0000.0001)                 3.450614146649838E+14
(PID.TID 0000.0001)     ;
(PID.TID 0000.0001) // =======================================================
(PID.TID 0000.0001) // End of Model config. summary
(PID.TID 0000.0001) // =======================================================
(PID.TID 0000.0001) 
(PID.TID 0000.0001)  MDSREADFIELD: opening global file: bathymetry.bin
(PID.TID 0000.0001) // =======================================================
(PID.TID 0000.0001) // Field Model R_low (ini_masks_etc) at iteration          1
(PID.TID 0000.0001) // CMIN =         -5.200000000000000E+03
(PID.TID 0000.0001) // CMAX =         -1.200000000000000E+02
(PID.TID 0000.0001) // CINT =          1.881481481481482E+02
(PID.TID 0000.0001) // SYMBOLS (CMIN->CMAX): -abcdefghijklmnopqrstuvwxyz+
(PID.TID 0000.0001) //                  0.0: .
(PID.TID 0000.0001) // RANGE I (Lo:Hi:Step):(  -2:  93:   1)
(PID.TID 0000.0001) // RANGE J (Lo:Hi:Step):(  43:  -2:  -1)
(PID.TID 0000.0001) // RANGE K (Lo:Hi:Step):(   1:   1:   1)
(PID.TID 0000.0001) // =======================================================
(PID.TID 0000.0001) K =   1
(PID.TID 0000.0001) //                I=7       I=17      I=27      I=37      I=47      I=57      I=67      I=77      I=87
(PID.TID 0000.0001) // |--J--|210123456|890123456|890123456|890123456|890123456|890123456|890123456|890123456|890123456|890123
(PID.TID 0000.0001) //     43 ................................................................................................
(PID.TID 0000.0001) //     42 .............................................zyxxmgfeeefefgimnpwwwy..+zyy.....yyyyoiiihhz+......
(PID.TID 0000.0001) //     41 ................................................................................................
(PID.TID 0000.0001) //     40 +qlloqz+.++++zzz++++++..................................................................+++qlloq
(PID.TID 0000.0001) //     39 uslloorzzzzzzzzz+...++.....................................................yxxz........+zvuslloo
(PID.TID 0000.0001) //     38 smqpporzzzzzz+++...........................................................zxxy+......zyyvsmqppo
(PID.TID 0000.0001) //     37 smmmuz..................................................................++...zy+...yttyy.+smmmuz
(PID.TID 0000.0001) //     36 yutt+.........................................mm++....................+++++++znmm.yoowssvuyutt+.
(PID.TID 0000.0001) //     35 w++++.................................+zzz..rrmmkk+...+gghn...........+++....+nmiijlsoopuww++++.
(PID.TID 0000.0001) //     34 +.....................................+vvy.ggqyxv+y.ccdffhim..................+nihhikkihhm+.....
(PID.TID 0000.0001) //     33 w+.....................................uuz---h------aaabdefin+.................zqvddflifffw+....
(PID.TID 0000.0001) //     32 m+.....................................+t----h---------acdfgnn................+++gdffkofffm+....
(PID.TID 0000.0001) //     31 m......................................-----ad--------abddegil..............qbaafccdhqqgddm.....
(PID.TID 0000.0001) //     30 i.....................................f----b--b------------abd............zfbb--fbcdosjfddi.....
(PID.TID 0000.0001) //     29 i...................................tu----e---fjg----------abdf...........eaac--abfmijaadgi.....
(PID.TID 0000.0001) //     28 z.................................+xfl-------------------bdedefi.........qbaa---aemfbbaaejz.....
(PID.TID 0000.0001) //     27 .................xx..............+wfgfpf--------eallc---bbbccefgi...+++x.qb-----akfa---ah.......
(PID.TID 0000.0001) //     26 .................xnn...........+vd---dna------a--aicfna---aabdfghku.++xssuy-----bgca---ci.......
(PID.TID 0000.0001) //     25 .................iiik...oo+...+ivd---doaa-bc--ilglf--aa---aabcghhkll...ssum+xaaacjbaabdjk.......
(PID.TID 0000.0001) //     24 ...............xnheeft.kkk+...uii.aagdm----aa-----a-------bbbcdefjljjju.zummwwbbchba--abi.......
(PID.TID 0000.0001) //     23 ...............xgheefp.iikw...uuw..fihi----fed-----eaaa--bbbbcdfflkjiiiq....zykccefa--abd.......
(PID.TID 0000.0001) //     22 quss...........bbelffslffkk...zz.wqkeeqoheccdfa-----egabaabcdddegghliiiqq......xeeehheehccquss..
(PID.TID 0000.0001) //     21 cbbeir........nbbcdjhqdddiiz.....wqfeelgghmedea-----bibbcddddddefghklnqoo........ieeflhgcccbbeir
(PID.TID 0000.0001) //     20 cbbder.......ldcccdgkccccidd......z.vkkktqqhegg----aaacddddddddefghkiiijl.........nhfa--gfcbbder
(PID.TID 0000.0001) //     19 hcdaaf.......kddosggpaaaibbccx...+z+.....r+nlec---agaaabcddccddefikfgffff...........d---cjhcdaaf
(PID.TID 0000.0001) //     18 hd---d.......kglggvliaaaibbcaaeaiv++...qqzolhecccfdgkaabcdfccdeeikgfgffdd+..........d---djhd---d
(PID.TID 0000.0001) //     17 hc---c.......l.feewlfaaaoaa----aiv.....qqnllslmlofcdbaacceffffhhligfigeddj.........hd---ckhc---c
(PID.TID 0000.0001) //     16 gba--c......tn.ddgnlfdaaqa-----lv.......vnllvllnwv--accivomfffhilhgfffeddjf........re--aeigba--c
(PID.TID 0000.0001) //     15 fb--dpz....+ll.ccdfhmdddlc----av.........otsxoomv---abccddfihgijkhgfffeejfff......+fd---ckfb--dp
(PID.TID 0000.0001) //     14 fc--mcl....weeqbaafilkfend--eagy.........hhstofft----aacdheefijkmjhhjijiffff.....zlfdaaadlfc--mc
(PID.TID 0000.0001) //     13 hcclbbg....nccobaaiddgkffqrqeaal.........eeutqfft------aaceeffhijlkjhhigfffq....+jgfodccflhcclbb
(PID.TID 0000.0001) //     12 hhgaaacw+iiicclemhdddfliigfdcaabfaaaz....ccsurqpc--------abcifffikiiihhggff.....kbbbdfffglhhgaaa
(PID.TID 0000.0001) //     11 kgcaaacbbifccennhbbdefnihgfdccaaaa----..dcccnt.ncab-------aabcdfilhggjiggff....l---abcefjlkgcaaa
(PID.TID 0000.0001) //     10 kfcaaccbdaacfrllfbbdegkmmljhfdddba----d.dcccfx.nyrebaba----abcdgilhfeegijgi..+w--aa-abcfilkfcaac
(PID.TID 0000.0001) //      9 lffcdcccaaaoqsolfdeehikihhlllgfedcccccdmdcccf.vyfaaaaaaaa--abdehmjhfeeefglv.++w-----abcdfklffcdc
(PID.TID 0000.0001) //      8 liffjklcaafddffeeccvznkfffhhhlkjifgjkkfeeddfsyvcaaaaaaccdcccdfgjligedbbceg+.++xffn--cfddefliffjk
(PID.TID 0000.0001) //      7 hmqnnbbkkf--bmbaabbgtykfddeffeeddccdfhlffeelfbaaaaaacddeghgjgjlligeddaaabedfiiiiiisvkfkecchmqnnb
(PID.TID 0000.0001) //      6 cca-------------aabcelttdddedddddccccdfkkiiffbaaaabcdgimmkmefecaaabbbaaabbdfiiiiispmmregifcca---
(PID.TID 0000.0001) //      5 --------a-------aaccehhhiddeddddddcccdfiikomodddefffmlmigedccaaaaaaaababbbdfiijsqgeccccbaa------
(PID.TID 0000.0001) //      4 --ahebaabbbbbeihffgijiiiijpywnnpokkomkiiijmmmolkommmgffeeedccaaaaaabbcccefhmz..yjgeccccbaa--aheb
(PID.TID 0000.0001) //      3 gffhhrpjiiwyy............................yxotmjjjjgfeeeeeeddeffffheddeghjkyy..yqjgeddccdbbgffhhr
(PID.TID 0000.0001) //      2 .............................................zyxxmgfeeefefgimnpwwwy..+zyy.....yyyyoiiihhz+......
(PID.TID 0000.0001) //      1 ................................................................................................
(PID.TID 0000.0001) //      0 +qlloqz+.++++zzz++++++..................................................................+++qlloq
(PID.TID 0000.0001) //     -1 uslloorzzzzzzzzz+...++.....................................................yxxz........+zvuslloo
(PID.TID 0000.0001) //     -2 ................................................................................................
(PID.TID 0000.0001) // =======================================================
(PID.TID 0000.0001) // END OF FIELD                                          =
(PID.TID 0000.0001) // =======================================================
(PID.TID 0000.0001) 
(PID.TID 0000.0001) // =======================================================
(PID.TID 0000.0001) // Field Model Ro_surf (ini_masks_etc) at iteration          1
(PID.TID 0000.0001) // CMIN =          1.000000000000000E+32
(PID.TID 0000.0001) // CMAX =         -1.000000000000000E+32
(PID.TID 0000.0001) // CINT =          0.000000000000000E+00
(PID.TID 0000.0001) // SYMBOLS (CMIN->CMAX): -abcdefghijklmnopqrstuvwxyz+
(PID.TID 0000.0001) //                  0.0: .
(PID.TID 0000.0001) // RANGE I (Lo:Hi:Step):(  -2:  93:   1)
(PID.TID 0000.0001) // RANGE J (Lo:Hi:Step):(  43:  -2:  -1)
(PID.TID 0000.0001) // RANGE K (Lo:Hi:Step):(   1:   1:   1)
(PID.TID 0000.0001) // =======================================================
(PID.TID 0000.0001) // =======================================================
(PID.TID 0000.0001) // END OF FIELD                                          =
(PID.TID 0000.0001) // =======================================================
(PID.TID 0000.0001) 
(PID.TID 0000.0001) // =======================================================
(PID.TID 0000.0001) // Field hFacC at iteration          1
(PID.TID 0000.0001) // CMIN =          1.000000000000000E+00
(PID.TID 0000.0001) // CMAX =          1.000000000000000E+00
(PID.TID 0000.0001) // CINT =          0.000000000000000E+00
(PID.TID 0000.0001) // SYMBOLS (CMIN->CMAX): -abcdefghijklmnopqrstuvwxyz+
(PID.TID 0000.0001) //                  0.0: .
(PID.TID 0000.0001) // RANGE I (Lo:Hi:Step):(  -2:  93:   1)
(PID.TID 0000.0001) // RANGE J (Lo:Hi:Step):(  43:  -2:  -1)
(PID.TID 0000.0001) // RANGE K (Lo:Hi:Step):(   1:   1:   1)
(PID.TID 0000.0001) // =======================================================
(PID.TID 0000.0001) // =======================================================
(PID.TID 0000.0001) // END OF FIELD                                          =
(PID.TID 0000.0001) // =======================================================
(PID.TID 0000.0001) 
(PID.TID 0000.0001) // =======================================================
(PID.TID 0000.0001) // Field hFacW at iteration          1
(PID.TID 0000.0001) // CMIN =          1.000000000000000E+00
(PID.TID 0000.0001) // CMAX =          1.000000000000000E+00
(PID.TID 0000.0001) // CINT =          0.000000000000000E+00
(PID.TID 0000.0001) // SYMBOLS (CMIN->CMAX): -abcdefghijklmnopqrstuvwxyz+
(PID.TID 0000.0001) //                  0.0: .
(PID.TID 0000.0001) // RANGE I (Lo:Hi:Step):(  -2:  93:   1)
(PID.TID 0000.0001) // RANGE J (Lo:Hi:Step):(  43:  -2:  -1)
(PID.TID 0000.0001) // RANGE K (Lo:Hi:Step):(   1:   1:   1)
(PID.TID 0000.0001) // =======================================================
(PID.TID 0000.0001) // =======================================================
(PID.TID 0000.0001) // END OF FIELD                                          =
(PID.TID 0000.0001) // =======================================================
(PID.TID 0000.0001) 
(PID.TID 0000.0001) // =======================================================
(PID.TID 0000.0001) // Field hFacS at iteration          1
(PID.TID 0000.0001) // CMIN =          1.000000000000000E+00
(PID.TID 0000.0001) // CMAX =          1.000000000000000E+00
(PID.TID 0000.0001) // CINT =          0.000000000000000E+00
(PID.TID 0000.0001) // SYMBOLS (CMIN->CMAX): -abcdefghijklmnopqrstuvwxyz+
(PID.TID 0000.0001) //                  0.0: .
(PID.TID 0000.0001) // RANGE I (Lo:Hi:Step):(  -2:  93:   1)
(PID.TID 0000.0001) // RANGE J (Lo:Hi:Step):(  43:  -2:  -1)
(PID.TID 0000.0001) // RANGE K (Lo:Hi:Step):(   1:   1:   1)
(PID.TID 0000.0001) // =======================================================
(PID.TID 0000.0001) // =======================================================
(PID.TID 0000.0001) // END OF FIELD                                          =
(PID.TID 0000.0001) // =======================================================
(PID.TID 0000.0001) 
(PID.TID 0000.0001) %MON fCori_max                    =   1.4226580169407E-04
(PID.TID 0000.0001) %MON fCori_min                    =  -1.4226580169407E-04
(PID.TID 0000.0001) %MON fCori_mean                   =   7.5291817533716E-23
(PID.TID 0000.0001) %MON fCori_sd                     =   9.6335367303778E-05
(PID.TID 0000.0001) %MON fCoriG_max                   =   1.4112379284621E-04
(PID.TID 0000.0001) %MON fCoriG_min                   =  -1.4323448157692E-04
(PID.TID 0000.0001) %MON fCoriG_mean                  =  -3.6726790147928E-06
(PID.TID 0000.0001) %MON fCoriG_sd                    =   9.7510077443652E-05
(PID.TID 0000.0001) %MON fCoriCos_max                 =   1.4535550371427E-04
(PID.TID 0000.0001) %MON fCoriCos_min                 =   3.0239529651320E-05
(PID.TID 0000.0001) %MON fCoriCos_mean                =   1.0260497651149E-04
(PID.TID 0000.0001) %MON fCoriCos_sd                  =   3.6683828681187E-05
(PID.TID 0000.0001) INI_CG2D: CG2D normalisation factor =  6.5682677425711703E-05
(PID.TID 0000.0001) 
(PID.TID 0000.0001)  MDSREADFIELD: opening global file: lev_t.bin
(PID.TID 0000.0001) // =======================================================
(PID.TID 0000.0001) // Field Initial Temperature at iteration          1
(PID.TID 0000.0001) // CMIN =         -1.900000000000000E+00
(PID.TID 0000.0001) // CMAX =          2.973338890075684E+01
(PID.TID 0000.0001) // CINT =          1.171606996324327E+00
(PID.TID 0000.0001) // SYMBOLS (CMIN->CMAX): -abcdefghijklmnopqrstuvwxyz+
(PID.TID 0000.0001) //                  0.0: .
(PID.TID 0000.0001) // RANGE I (Lo:Hi:Step):(   1:  90:   1)
(PID.TID 0000.0001) // RANGE J (Lo:Hi:Step):(  40:   1:  -1)
(PID.TID 0000.0001) // RANGE K (Lo:Hi:Step):(   1:   1:   1)
(PID.TID 0000.0001) // =======================================================
(PID.TID 0000.0001) K =   1
(PID.TID 0000.0001)                I=10      I=20      I=30      I=40      I=50      I=60      I=70      I=80      I=90
(PID.TID 0000.0001) |--J--|123456789|123456789|123456789|123456789|123456789|123456789|123456789|123456789|123456789|
(PID.TID 0000.0001)     40 bccdd.baa----abdedd..................................................................bbbbb
(PID.TID 0000.0001)     39 ccdddddccbbbaa...ed.....................................................----........bbbbbb
(PID.TID 0000.0001)     38 fffgfedeedddc...........................................................-----......cbbbcde
(PID.TID 0000.0001)     37 ghh..................................................................bc...bbc...edeed.defg
(PID.TID 0000.0001)     36 hh.........................................ddcb....................dcccbabccdd.eefghhihhih
(PID.TID 0000.0001)     35 hh.................................aaab..dddeddd...ffggg...........ccc....ddeeeffghijjjjih
(PID.TID 0000.0001)     34 ...................................babb.deeeeeee.ffffgghh..................ccdffghijkkkj..
(PID.TID 0000.0001)     33 ....................................accdddeeeeefffffgghhiii.................bcfijkkllllkk.
(PID.TID 0000.0001)     32 ....................................bdddeffgffgghhhhhiiijjj................dccglmnmmmmlll.
(PID.TID 0000.0001)     31 ....................................fghiiiijjjjjjkkkkklllkk..............ikkjjmooooonnmm..
(PID.TID 0000.0001)     30 ...................................mmmnmmmmmmmmmmmmmnnnnnmm............moqrrrqrqqqpppooo..
(PID.TID 0000.0001)     29 .................................pqqqqqpppppppppoppoppppponm...........ssssssrrrrrqqqqpp..
(PID.TID 0000.0001)     28 ...............................prssssrrrsssrrrrrrrrrrrrrqqpoo.........uttssstssrssrrrqqq..
(PID.TID 0000.0001)     27 ..............vv..............stuttuuuuutuuuuuuuuuuttttssrrqqq...stuu.vvvuuuuutttttsss....
(PID.TID 0000.0001)     26 ..............vvv...........uuvvvvvwwwwwwwwvvvvvvvvvuuutttsssttv.uuvxxwwwwwwvvvvuuttsr....
(PID.TID 0000.0001)     25 ..............wwwx...xxx...vvvxxxxxyyxxxxxxxxxwwwwwvvvvvuuuuuvwwx...xxxxxxwwwwwwvvutsr....
(PID.TID 0000.0001)     24 ............wwwwxyy.xxyy...wxx.yyyyyyyyyyyxxxxxxxxwwwwwwwvvwwxxyywww.xxxxxxxxxxwwwvvur....
(PID.TID 0000.0001)     23 ............xxxyyyz.xyyy...xxx..yyyyzzyyyyyyyyxxxxxxxxxwwwwwxxxwwwwwx....vwxxxxwwwwwvu....
(PID.TID 0000.0001)     22 w...........xxyyyzyyyyyz...xx.yyzzzzzzzzzzzzzyyzyyyyyyxxwwxxxxwvvvwwxw......yyyyxxxxxxwxxw
(PID.TID 0000.0001)     21 xxx........xxxxyyzzzzzzz+.....zyzzzzzzz++zzzzyyyyyyyyxxwvvwwwwvvvvvvvu........yyyyyyyyyxxx
(PID.TID 0000.0001)     20 xww.......xyyyyxyyzzzzzz+......z.zzzzz+++zzzzzzyyyyyxxxxwvwxwvuuuuuuut.........yyyyxxxxwww
(PID.TID 0000.0001)     19 vvv.......yyyyxwwxyzyyzzzzz...zzz.....++++++z++z+zzzyyyyxxxxwwvvvvvvvu...........yyxxxwwww
(PID.TID 0000.0001)     18 uut.......zzyyywwxyzyyyyzzyzzzzzz...z+z++++zz+++++++zzzyyyyxxwwwvvvvvtt..........yyxxwvvwv
(PID.TID 0000.0001)     17 uus.......z.yyyyyyxyzzyyyyyyyzz.....yzzzzzzzzzzzzzzzzzzyyyyxxwwvuuvvuut.........yyyxxwttvu
(PID.TID 0000.0001)     16 utr......yy.zyyyyxxxxxxxwxxxxy.......yyyyyyyyyyyyyyyyyyyyyyyxxwvvvuuutts........xyyyxwvuuu
(PID.TID 0000.0001)     15 ttrr....xxx.xxxwxwwwwvwwvvvww.........xwxxxxxxxxxxxxxxxxxyyyxwwwvvuttssrr......wxxxxxwwvuu
(PID.TID 0000.0001)     14 ttsq....xyxwwxwvwwwvutuuuuuuu.........wwvwwwwvwvvwwwvwvvwwwwwwvvvuuutssrr.....vwwwwwwwvvvu
(PID.TID 0000.0001)     13 tttr....wwwvvvtttuuuutttssttt.........vvvuuuuuuutttttuuuuuvwwwuuuttttssrr....uvvvvvvvvvvut
(PID.TID 0000.0001)     12 sssssstttutssssrrrrrstrqqrrssqqrrq....uuttssssrrrrrrrrrrrstttssssrssrrqp.....uuuttssttssss
(PID.TID 0000.0001)     11 poprsssrqqqqqrqppooopqpoppppppppppp..sssrrr.rqpppqqqqppppqqqoppqqqqrqqpp....prsrqqqqqppppq
(PID.TID 0000.0001)     10 lllmoooonmnnmnnnnmmmmmmlmmlllmnnnnon.qqqppp.ppppppooooooooonmnnnonnooooo..nmoponnmnnnnnmll
(PID.TID 0000.0001)      9 ihhiiiihhhhhhiiihiiiiihhhiiiijjkkmnllnnnnn.mmmmnnnnmmmmnnmmlklllllklllll.mllmmllkjiijjihhi
(PID.TID 0000.0001)      8 eeeeeeeedefgggffeeffggffffggghiiiijjijklklkkkkkkkklllkkkkjjiiijkjjjjjjkj.kkjjiihggffffedde
(PID.TID 0000.0001)      7 cccccddeedddefeddddddddddefeefffffgggghiiiiiijjjihhgggghhhhhghhhhhhhiiiihiihhgfeddddddcccc
(PID.TID 0000.0001)      6 abbcccddcccccdddddccdddddddccddddddeeeeffggggghhgeddddddeeeeeeefggggghggggffeedccbbbbbbbba
(PID.TID 0000.0001)      5 bbbcccccccccccccccccccccbbccccdddddddcccddeeddeedcbbbbbbccccccdddeeeeeddddddccbbbbaaaaaaab
(PID.TID 0000.0001)      4 bbbbbbbaaabbbbbbbbbbbbaabbabbbbcbbbbbbbbbbbbbbbbbbbabbaaabbbbbbbbbbbbbbbbb..a--aaabbbaaabb
(PID.TID 0000.0001)      3 bbbbaaa-a-............................bbaaaaaaaaaaaaaaaaaaaaaaaaaaaaaaaab..aaaaaaaabbbaaaa
(PID.TID 0000.0001)      2 ..........................................baaaaaaaaaaaa-------aa..aaaa.....aaaaaaaaaaaa...
(PID.TID 0000.0001)      1 ..........................................................................................
(PID.TID 0000.0001) // =======================================================
(PID.TID 0000.0001) // END OF FIELD                                          =
(PID.TID 0000.0001) // =======================================================
(PID.TID 0000.0001) 
(PID.TID 0000.0001)  MDSREADFIELD: opening global file: lev_s.bin
(PID.TID 0000.0001) // =======================================================
(PID.TID 0000.0001) // Field Initial Salinity at iteration          1
(PID.TID 0000.0001) // CMIN =          2.975276947021484E+01
(PID.TID 0000.0001) // CMAX =          3.747562789916992E+01
(PID.TID 0000.0001) // CINT =          2.860317936650029E-01
(PID.TID 0000.0001) // SYMBOLS (CMIN->CMAX): -abcdefghijklmnopqrstuvwxyz+
(PID.TID 0000.0001) //                  0.0: .
(PID.TID 0000.0001) // RANGE I (Lo:Hi:Step):(   1:  90:   1)
(PID.TID 0000.0001) // RANGE J (Lo:Hi:Step):(  40:   1:  -1)
(PID.TID 0000.0001) // RANGE K (Lo:Hi:Step):(   1:   1:   1)
(PID.TID 0000.0001) // =======================================================
(PID.TID 0000.0001) K =   1
(PID.TID 0000.0001)                I=10      I=20      I=30      I=40      I=50      I=60      I=70      I=80      I=90
(PID.TID 0000.0001) |--J--|123456789|123456789|123456789|123456789|123456789|123456789|123456789|123456789|123456789|
(PID.TID 0000.0001)     40 qrrrr.oonnooopqtutt..................................................................mnnop
(PID.TID 0000.0001)     39 rssrrrrrrrqqpn...ut.....................................................mmmm........opqqqr
(PID.TID 0000.0001)     38 ssrrqqqqrrqpo...........................................................lkkll......onoqrrs
(PID.TID 0000.0001)     37 ssr..................................................................hg...lln...qppqr.rrrs
(PID.TID 0000.0001)     36 rr.........................................lkji....................feeegikmoop.pqrssssssss
(PID.TID 0000.0001)     35 rr.................................kkkk..lllllki...jijjj...........aa-....opqrrrrrrrssttss
(PID.TID 0000.0001)     34 ...................................jlll.kklllllk.ijkkkjih..................hlpqrqrrsstts..
(PID.TID 0000.0001)     33 ....................................iklkkkkkkkkkjkkjjjjjjii.................jmprrsstttttt.
(PID.TID 0000.0001)     32 ....................................iklllkllllllllkkkkkkkji................gilpstuuttuuut.
(PID.TID 0000.0001)     31 ....................................lmnonnnnoooonnmmmmllkjj..............loopqtvvvuuuuuu..
(PID.TID 0000.0001)     30 ...................................pppppppqqqqpppoooonnmlkk............ptvxwwvvwvvvvvvvu..
(PID.TID 0000.0001)     29 .................................pqqrqqqqqqrrrqqppqqqpponmll...........vxxxxxxwwwwwxwwxw..
(PID.TID 0000.0001)     28 ...............................prrrrrqqrrrrrsrrsrssssssrqonmm.........wxxxxxxxyyyyyyyyxx..
(PID.TID 0000.0001)     27 ..............xx..............prrrrrrrrrssssssstttssssssrqpoop...uwww.wwxxxyyy++zzzzyy....
(PID.TID 0000.0001)     26 ..............wxx...........ppqrrrrrrsssrrstsstttssrrrrrrrqppqqp.wwwvvwwwwwxyy+++zzyxw....
(PID.TID 0000.0001)     25 ..............wxxv...kkk...ooopqrrrrrssrrrrrrrssssqqpppppppppppoo...vvutuuvvwxyyyxxvvu....
(PID.TID 0000.0001)     24 ............uvvwwur.lmlk...nmm.pqqqqrrrrrqqqqrrqqrpppppooooonmmmnooo.uuuuuuttuvvvuvuut....
(PID.TID 0000.0001)     23 ............vvuvtqp.lmml...mln..ppppqpqppppppqpppppppppqppponnnnnoopm....xvuuuvvvvuuut....
(PID.TID 0000.0001)     22 r...........vuttsqqpnppn...mm.oppqqrrqqqqqqppppqqrrrqqqrrppppoopooomjj......uuvvvvvuttssrr
(PID.TID 0000.0001)     21 qmm........ttsssssssrsqon.....opqqqqqqqrrrrqqqssssssrrrrrrrrpqqqppomll........tvvvvuttssrr
(PID.TID 0000.0001)     20 sqq.......sttssrrsrrrrpol......p.qrqpqrrrrrrrstttttsssrrsssrqrrrrqqqpo.........wwwvvvuuutt
(PID.TID 0000.0001)     19 tsr.......ssssrrrrpppppnmmm...oqq.....qrqqsrrstttuuuttssttssrrssrrrrqq...........wwwvuvvvv
(PID.TID 0000.0001)     18 wut.......ssrrrrrqppppppppoooorrr...poqqqprrrttttuuutuuuuuutttttttutsss..........yyxwwxwxx
(PID.TID 0000.0001)     17 wwu.......s.rrrrrrqppppqqqqqqqr.....rrsrqrsssuusrtuuuvvvwwvvvuuuuutttss.........xyzyyyyxxx
(PID.TID 0000.0001)     16 vvt......ss.qrrssrqrqpqrrrrrrr.......ssrrstsstusrsuuuvwwwwxxwwvvvuttttsr........yz+zzzxwww
(PID.TID 0000.0001)     15 utss....stt.rrssstttsrrsrstsr.........ssstttssttsuuttuvvvvwxwwwwwuttsssrr......xyyyyxyyxwv
(PID.TID 0000.0001)     14 utts....sstrrssstuuuuuuuuuutt.........stttuutttttttuttttttuvvvvvvutsrqrrr.....vxxwwwwxwvwv
(PID.TID 0000.0001)     13 uuut....ttttttttuuuuuvtuuuuuu.........ttttuutttttttuutsssstttttstsqrqqppp....uwwwvuvvvutvv
(PID.TID 0000.0001)     12 ttttttttttttttttttttttssuuuuutuuut....tttttttttttsssssrrrrrrrqqqqqppppoo.....rvvuuttttttuu
(PID.TID 0000.0001)     11 rqsttttttttuuttttsssssrrstttttttsss..ttttts.tsssrrrrqqqqqppppoonnooooooo....oruttttsssrqrs
(PID.TID 0000.0001)     10 pppqrssrqqrqpqrssrrqqqqqqrrrrrrrrrrs.sssssr.rssrrqqpppppppooooonnnoooonn..moqrrrqqqqqqqqqq
(PID.TID 0000.0001)      9 oonooooooooonnnooooooooooppppppqqqqqrrrqrq.pppqqqqqppppppppppoooooooooll.lmoqqqqppooooopoo
(PID.TID 0000.0001)      8 nnnoonooooooonnnnnnnoooonoonoooppopqqqqqqqppopppqqqpppppppppppppppooopon.lnopppoooonnnnooo
(PID.TID 0000.0001)      7 ooooooooooopponnnooooooonnnnnonnooooooooopppppppoooooooooopppppppppoopqnnmnoooonnnonnnnnno
(PID.TID 0000.0001)      6 oooonnoonnnnooooooooooooonnnnnnnnnnnnnnnnoooopppooooooooooooooppppppppppoooooooonnnnnmnnnn
(PID.TID 0000.0001)      5 oooonnnnnnnnnnnnnnnnnoooooonnnnnnonnnnnnnnnoooooooooooonnnnnnooooooopoooonoooonnnnnnnooooo
(PID.TID 0000.0001)      4 oooonnnooonnnnnnnnnnnnnnoooooonnnooooonnnooooooooppponnnnmmmnnnnmnnoonnnnn..nnnooooooooooo
(PID.TID 0000.0001)      3 ooonnnnnnn............................nnoooooonnooooonnnnnnnoonnnnnnnnmmm..ooopooooooooooo
(PID.TID 0000.0001)      2 ..........................................pppooooonnnnnnoooppppo..nnnn.....qqqpppoooooo...
(PID.TID 0000.0001)      1 ..........................................................................................
(PID.TID 0000.0001) // =======================================================
(PID.TID 0000.0001) // END OF FIELD                                          =
(PID.TID 0000.0001) // =======================================================
(PID.TID 0000.0001) 
(PID.TID 0000.0001) Start initial hydrostatic pressure computation
(PID.TID 0000.0001) Pressure is predetermined for buoyancyRelation OCEANIC
(PID.TID 0000.0001) 
(PID.TID 0000.0001)  MDSREADFIELD: opening file: xx_theta.0000000000.001.001.data
(PID.TID 0000.0001)  MDSREADFIELD: opening file: xx_salt.0000000000.001.001.data
(PID.TID 0000.0001)  MDSREADFIELD: opening file: xx_diffkr.0000000000.001.001.data
(PID.TID 0000.0001)  MDSREADFIELD: opening global file: trenberth_taux.bin
(PID.TID 0000.0001)  MDSREADFIELD: opening global file: trenberth_tauy.bin
(PID.TID 0000.0001)  MDSREADFIELD: opening global file: ncep_qnet.bin
(PID.TID 0000.0001)  MDSREADFIELD: opening global file: lev_sst.bin
(PID.TID 0000.0001)  MDSREADFIELD: opening global file: lev_sss.bin
(PID.TID 0000.0001) // =======================================================
(PID.TID 0000.0001) // Begin MONITOR dynamic field statistics
(PID.TID 0000.0001) // =======================================================
(PID.TID 0000.0001) %MON time_tsnumber                =                     0
(PID.TID 0000.0001) %MON time_secondsf                =   0.0000000000000E+00
(PID.TID 0000.0001) %MON dynstat_eta_max              =   0.0000000000000E+00
(PID.TID 0000.0001) %MON dynstat_eta_min              =   0.0000000000000E+00
(PID.TID 0000.0001) %MON dynstat_eta_mean             =   0.0000000000000E+00
(PID.TID 0000.0001) %MON dynstat_eta_sd               =   0.0000000000000E+00
(PID.TID 0000.0001) %MON dynstat_eta_del2             =   0.0000000000000E+00
(PID.TID 0000.0001) %MON dynstat_uvel_max             =   0.0000000000000E+00
(PID.TID 0000.0001) %MON dynstat_uvel_min             =   0.0000000000000E+00
(PID.TID 0000.0001) %MON dynstat_uvel_mean            =   0.0000000000000E+00
(PID.TID 0000.0001) %MON dynstat_uvel_sd              =   0.0000000000000E+00
(PID.TID 0000.0001) %MON dynstat_uvel_del2            =   0.0000000000000E+00
(PID.TID 0000.0001) %MON dynstat_vvel_max             =   0.0000000000000E+00
(PID.TID 0000.0001) %MON dynstat_vvel_min             =   0.0000000000000E+00
(PID.TID 0000.0001) %MON dynstat_vvel_mean            =   0.0000000000000E+00
(PID.TID 0000.0001) %MON dynstat_vvel_sd              =   0.0000000000000E+00
(PID.TID 0000.0001) %MON dynstat_vvel_del2            =   0.0000000000000E+00
(PID.TID 0000.0001) %MON dynstat_wvel_max             =   0.0000000000000E+00
(PID.TID 0000.0001) %MON dynstat_wvel_min             =   0.0000000000000E+00
(PID.TID 0000.0001) %MON dynstat_wvel_mean            =   0.0000000000000E+00
(PID.TID 0000.0001) %MON dynstat_wvel_sd              =   0.0000000000000E+00
(PID.TID 0000.0001) %MON dynstat_wvel_del2            =   0.0000000000000E+00
(PID.TID 0000.0001) %MON dynstat_theta_max            =   2.9733388900757E+01
(PID.TID 0000.0001) %MON dynstat_theta_min            =  -1.9000000000000E+00
(PID.TID 0000.0001) %MON dynstat_theta_mean           =   3.6197074666129E+00
(PID.TID 0000.0001) %MON dynstat_theta_sd             =   4.4174614518568E+00
(PID.TID 0000.0001) %MON dynstat_theta_del2           =   1.5097301766230E-01
(PID.TID 0000.0001) %MON dynstat_salt_max             =   3.7475627899170E+01
(PID.TID 0000.0001) %MON dynstat_salt_min             =   2.9752769470215E+01
(PID.TID 0000.0001) %MON dynstat_salt_mean            =   3.4718006161475E+01
(PID.TID 0000.0001) %MON dynstat_salt_sd              =   2.9628819587990E-01
(PID.TID 0000.0001) %MON dynstat_salt_del2            =   2.6251884861846E-02
(PID.TID 0000.0001) %MON dynstat_sst_max              =   2.9733388900757E+01
(PID.TID 0000.0001) %MON dynstat_sst_min              =  -1.9000000000000E+00
(PID.TID 0000.0001) %MON dynstat_sst_mean             =   1.8484768169451E+01
(PID.TID 0000.0001) %MON dynstat_sst_sd               =   9.1795873467430E+00
(PID.TID 0000.0001) %MON dynstat_sst_del2             =   2.8475713994204E-01
(PID.TID 0000.0001) %MON dynstat_sss_max              =   3.7475627899170E+01
(PID.TID 0000.0001) %MON dynstat_sss_min              =   2.9752769470215E+01
(PID.TID 0000.0001) %MON dynstat_sss_mean             =   3.4849925275207E+01
(PID.TID 0000.0001) %MON dynstat_sss_sd               =   9.6344930396289E-01
(PID.TID 0000.0001) %MON dynstat_sss_del2             =   8.4229940575091E-02
(PID.TID 0000.0001) %MON extforcing_qnet_max          =   4.4161361694336E+02
(PID.TID 0000.0001) %MON extforcing_qnet_min          =  -1.8132531738281E+02
(PID.TID 0000.0001) %MON extforcing_qnet_mean         =  -1.6512526001044E+01
(PID.TID 0000.0001) %MON extforcing_qnet_sd           =   1.0987288293460E+02
(PID.TID 0000.0001) %MON extforcing_qnet_del2         =   9.6689454498868E+00
(PID.TID 0000.0001) %MON extforcing_qsw_max           =   0.0000000000000E+00
(PID.TID 0000.0001) %MON extforcing_qsw_min           =   0.0000000000000E+00
(PID.TID 0000.0001) %MON extforcing_qsw_mean          =   0.0000000000000E+00
(PID.TID 0000.0001) %MON extforcing_qsw_sd            =   0.0000000000000E+00
(PID.TID 0000.0001) %MON extforcing_qsw_del2          =   0.0000000000000E+00
(PID.TID 0000.0001) %MON extforcing_empmr_max         =   0.0000000000000E+00
(PID.TID 0000.0001) %MON extforcing_empmr_min         =   0.0000000000000E+00
(PID.TID 0000.0001) %MON extforcing_empmr_mean        =   0.0000000000000E+00
(PID.TID 0000.0001) %MON extforcing_empmr_sd          =   0.0000000000000E+00
(PID.TID 0000.0001) %MON extforcing_empmr_del2        =   0.0000000000000E+00
(PID.TID 0000.0001) %MON extforcing_fu_max            =   2.7877888083458E-01
(PID.TID 0000.0001) %MON extforcing_fu_min            =  -1.7088057100773E-01
(PID.TID 0000.0001) %MON extforcing_fu_mean           =   1.6001735152566E-02
(PID.TID 0000.0001) %MON extforcing_fu_sd             =   9.1062350670783E-02
(PID.TID 0000.0001) %MON extforcing_fu_del2           =   7.6925174727079E-03
(PID.TID 0000.0001) %MON extforcing_fv_max            =   2.3312132060528E-01
(PID.TID 0000.0001) %MON extforcing_fv_min            =  -1.7813690006733E-01
(PID.TID 0000.0001) %MON extforcing_fv_mean           =  -5.2588977395051E-03
(PID.TID 0000.0001) %MON extforcing_fv_sd             =   4.8248606070107E-02
(PID.TID 0000.0001) %MON extforcing_fv_del2           =   4.8562771937866E-03
(PID.TID 0000.0001) %MON advcfl_uvel_max              =   0.0000000000000E+00
(PID.TID 0000.0001) %MON advcfl_vvel_max              =   0.0000000000000E+00
(PID.TID 0000.0001) %MON advcfl_wvel_max              =   0.0000000000000E+00
(PID.TID 0000.0001) %MON advcfl_W_hf_max              =   0.0000000000000E+00
(PID.TID 0000.0001) %MON pe_b_mean                    =   0.0000000000000E+00
(PID.TID 0000.0001) %MON ke_max                       =   0.0000000000000E+00
(PID.TID 0000.0001) %MON ke_mean                      =   0.0000000000000E+00
(PID.TID 0000.0001) %MON ke_vol                       =   1.3226782436723E+18
(PID.TID 0000.0001) %MON vort_r_min                   =   0.0000000000000E+00
(PID.TID 0000.0001) %MON vort_r_max                   =   0.0000000000000E+00
(PID.TID 0000.0001) %MON vort_a_mean                  =  -2.5205769728595E-05
(PID.TID 0000.0001) %MON vort_a_sd                    =   7.3403301351718E-05
(PID.TID 0000.0001) %MON vort_p_mean                  =  -3.1758669979758E-05
(PID.TID 0000.0001) %MON vort_p_sd                    =   1.3126616755304E-04
(PID.TID 0000.0001) %MON surfExpan_theta_mean         =   0.0000000000000E+00
(PID.TID 0000.0001) %MON surfExpan_salt_mean          =   0.0000000000000E+00
(PID.TID 0000.0001) // =======================================================
(PID.TID 0000.0001) // End MONITOR dynamic field statistics
(PID.TID 0000.0001) // =======================================================
S/R EXTERNAL_FIELDS_LOAD: Reading new data:   12    1         0  0.000000000000E+00
(PID.TID 0000.0001)  MDSREADFIELD: opening global file: trenberth_taux.bin
(PID.TID 0000.0001)  MDSREADFIELD: opening global file: trenberth_taux.bin
(PID.TID 0000.0001)  MDSREADFIELD: opening global file: trenberth_tauy.bin
(PID.TID 0000.0001)  MDSREADFIELD: opening global file: trenberth_tauy.bin
(PID.TID 0000.0001)  MDSREADFIELD: opening global file: ncep_qnet.bin
(PID.TID 0000.0001)  MDSREADFIELD: opening global file: ncep_qnet.bin
(PID.TID 0000.0001)  MDSREADFIELD: opening global file: lev_sst.bin
(PID.TID 0000.0001)  MDSREADFIELD: opening global file: lev_sst.bin
(PID.TID 0000.0001)  MDSREADFIELD: opening global file: lev_sss.bin
(PID.TID 0000.0001)  MDSREADFIELD: opening global file: lev_sss.bin
time,SST,SSS,fu,fv,Q,E-P,i0,i1,a,b =   0.0000E+00  5.3151E-02  3.4364E+01 -4.0500E-02 -6.3753E-02  2.6510E+02  0.0000E+00    12     1  5.0000E-01  5.0000E-01
time,fu0,fu1,fu =   0.0000E+00 -4.5368E-02 -3.5633E-02 -4.0500E-02  5.000000000000000E-01  5.000000000000000E-01
(PID.TID 0000.0001)  MDSREADFIELD: opening file: xx_tauu.0000000000.001.001.data
(PID.TID 0000.0001)  MDSREADFIELD: opening file: xx_tauv.0000000000.001.001.data
(PID.TID 0000.0001)  MDSREADFIELD: opening file: xx_sflux.0000000000.001.001.data
(PID.TID 0000.0001)  MDSREADFIELD: opening file: xx_hflux.0000000000.001.001.data
 cg2d: Sum(rhs),rhsMax =  -5.41233724504764E-16  2.53364304519873E+00
(PID.TID 0000.0001)                    cg2d_init_res =    6.22532208289706E+00
(PID.TID 0000.0001)                       cg2d_iters =    26
(PID.TID 0000.0001)                         cg2d_res =    5.02297506711325E-14
(PID.TID 0000.0001) // =======================================================
(PID.TID 0000.0001) // Begin MONITOR dynamic field statistics
(PID.TID 0000.0001) // =======================================================
(PID.TID 0000.0001) %MON time_tsnumber                =                     1
(PID.TID 0000.0001) %MON time_secondsf                =   4.3200000000000E+04
(PID.TID 0000.0001) %MON dynstat_eta_max              =   1.7856749921513E-01
(PID.TID 0000.0001) %MON dynstat_eta_min              =  -1.1521465430466E-01
(PID.TID 0000.0001) %MON dynstat_eta_mean             =  -1.0648518043557E-17
(PID.TID 0000.0001) %MON dynstat_eta_sd               =   2.6330834449537E-02
(PID.TID 0000.0001) %MON dynstat_eta_del2             =   1.1668318012692E-02
(PID.TID 0000.0001) %MON dynstat_uvel_max             =   8.3278858756599E-03
(PID.TID 0000.0001) %MON dynstat_uvel_min             =  -8.9104646414739E-03
(PID.TID 0000.0001) %MON dynstat_uvel_mean            =  -3.6106680133272E-04
(PID.TID 0000.0001) %MON dynstat_uvel_sd              =   1.2326309547656E-03
(PID.TID 0000.0001) %MON dynstat_uvel_del2            =   4.2133103754465E-04
(PID.TID 0000.0001) %MON dynstat_vvel_max             =   1.8795311464058E-02
(PID.TID 0000.0001) %MON dynstat_vvel_min             =  -1.1292773495360E-02
(PID.TID 0000.0001) %MON dynstat_vvel_mean            =   9.2368598766839E-04
(PID.TID 0000.0001) %MON dynstat_vvel_sd              =   3.4433687416694E-03
(PID.TID 0000.0001) %MON dynstat_vvel_del2            =   5.2656180783299E-04
(PID.TID 0000.0001) %MON dynstat_wvel_max             =   1.5979209663759E-04
(PID.TID 0000.0001) %MON dynstat_wvel_min             =  -1.0322817826396E-04
(PID.TID 0000.0001) %MON dynstat_wvel_mean            =   1.3256968003460E-22
(PID.TID 0000.0001) %MON dynstat_wvel_sd              =   1.6851361663164E-05
(PID.TID 0000.0001) %MON dynstat_wvel_del2            =   8.8304738703715E-06
(PID.TID 0000.0001) %MON dynstat_theta_max            =   2.9730794627082E+01
(PID.TID 0000.0001) %MON dynstat_theta_min            =  -1.9001889888012E+00
(PID.TID 0000.0001) %MON dynstat_theta_mean           =   3.6197399484321E+00
(PID.TID 0000.0001) %MON dynstat_theta_sd             =   4.4171810546650E+00
(PID.TID 0000.0001) %MON dynstat_theta_del2           =   1.5246865249508E-01
(PID.TID 0000.0001) %MON dynstat_salt_max             =   3.7470708458118E+01
(PID.TID 0000.0001) %MON dynstat_salt_min             =   2.9753874437748E+01
(PID.TID 0000.0001) %MON dynstat_salt_mean            =   3.4718006046542E+01
(PID.TID 0000.0001) %MON dynstat_salt_sd              =   2.9615530704026E-01
(PID.TID 0000.0001) %MON dynstat_salt_del2            =   2.6484236165692E-02
(PID.TID 0000.0001) %MON dynstat_sst_max              =   2.9730794627082E+01
(PID.TID 0000.0001) %MON dynstat_sst_min              =  -1.9001889888012E+00
(PID.TID 0000.0001) %MON dynstat_sst_mean             =   1.8486800287702E+01
(PID.TID 0000.0001) %MON dynstat_sst_sd               =   9.1764593972618E+00
(PID.TID 0000.0001) %MON dynstat_sst_del2             =   2.8426070578784E-01
(PID.TID 0000.0001) %MON dynstat_sss_max              =   3.7470708458118E+01
(PID.TID 0000.0001) %MON dynstat_sss_min              =   2.9753874437748E+01
(PID.TID 0000.0001) %MON dynstat_sss_mean             =   3.4849525597005E+01
(PID.TID 0000.0001) %MON dynstat_sss_sd               =   9.6290583353485E-01
(PID.TID 0000.0001) %MON dynstat_sss_del2             =   8.3944675687386E-02
(PID.TID 0000.0001) %MON extforcing_qnet_max          =   4.2589080810547E+02
(PID.TID 0000.0001) %MON extforcing_qnet_min          =  -1.8702698516846E+02
(PID.TID 0000.0001) %MON extforcing_qnet_mean         =  -1.6700205338390E+01
(PID.TID 0000.0001) %MON extforcing_qnet_sd           =   1.1285666794876E+02
(PID.TID 0000.0001) %MON extforcing_qnet_del2         =   9.4920800031777E+00
(PID.TID 0000.0001) %MON extforcing_qsw_max           =   0.0000000000000E+00
(PID.TID 0000.0001) %MON extforcing_qsw_min           =   0.0000000000000E+00
(PID.TID 0000.0001) %MON extforcing_qsw_mean          =   0.0000000000000E+00
(PID.TID 0000.0001) %MON extforcing_qsw_sd            =   0.0000000000000E+00
(PID.TID 0000.0001) %MON extforcing_qsw_del2          =   0.0000000000000E+00
(PID.TID 0000.0001) %MON extforcing_empmr_max         =   0.0000000000000E+00
(PID.TID 0000.0001) %MON extforcing_empmr_min         =   0.0000000000000E+00
(PID.TID 0000.0001) %MON extforcing_empmr_mean        =   0.0000000000000E+00
(PID.TID 0000.0001) %MON extforcing_empmr_sd          =   0.0000000000000E+00
(PID.TID 0000.0001) %MON extforcing_empmr_del2        =   0.0000000000000E+00
(PID.TID 0000.0001) %MON extforcing_fu_max            =   2.7488999068737E-01
(PID.TID 0000.0001) %MON extforcing_fu_min            =  -1.6014087945223E-01
(PID.TID 0000.0001) %MON extforcing_fu_mean           =   1.6117127468124E-02
(PID.TID 0000.0001) %MON extforcing_fu_sd             =   9.0153154829689E-02
(PID.TID 0000.0001) %MON extforcing_fu_del2           =   7.3708273804392E-03
(PID.TID 0000.0001) %MON extforcing_fv_max            =   2.0835298299789E-01
(PID.TID 0000.0001) %MON extforcing_fv_min            =  -1.8690676242113E-01
(PID.TID 0000.0001) %MON extforcing_fv_mean           =  -6.3653356424171E-03
(PID.TID 0000.0001) %MON extforcing_fv_sd             =   4.5157892194461E-02
(PID.TID 0000.0001) %MON extforcing_fv_del2           =   4.3354963669297E-03
(PID.TID 0000.0001) %MON advcfl_uvel_max              =   2.6512729685057E-03
(PID.TID 0000.0001) %MON advcfl_vvel_max              =   1.8258137884558E-03
(PID.TID 0000.0001) %MON advcfl_wvel_max              =   2.5713719886979E-01
(PID.TID 0000.0001) %MON advcfl_W_hf_max              =   2.6084575826616E-01
(PID.TID 0000.0001) %MON pe_b_mean                    =   8.8717734933357E-07
(PID.TID 0000.0001) %MON ke_max                       =   1.2389974061821E-04
(PID.TID 0000.0001) %MON ke_mean                      =   6.4555747103514E-06
(PID.TID 0000.0001) %MON ke_vol                       =   1.3226782436723E+18
(PID.TID 0000.0001) %MON vort_r_min                   =  -5.9901656470325E-08
(PID.TID 0000.0001) %MON vort_r_max                   =   6.7789443932800E-08
(PID.TID 0000.0001) %MON vort_a_mean                  =  -2.5205769395234E-05
(PID.TID 0000.0001) %MON vort_a_sd                    =   7.3403223082110E-05
(PID.TID 0000.0001) %MON vort_p_mean                  =  -3.1758669559732E-05
(PID.TID 0000.0001) %MON vort_p_sd                    =   1.3126608087620E-04
(PID.TID 0000.0001) %MON surfExpan_theta_mean         =   4.7001095740141E-05
(PID.TID 0000.0001) %MON surfExpan_salt_mean          =   3.5346109011954E-06
(PID.TID 0000.0001) // =======================================================
(PID.TID 0000.0001) // End MONITOR dynamic field statistics
(PID.TID 0000.0001) // =======================================================
time,SST,SSS,fu,fv,Q,E-P,i0,i1,a,b =   4.3200E+04  8.3327E-02  3.4375E+01 -4.0338E-02 -6.3536E-02  2.6512E+02  0.0000E+00    12     1  5.1667E-01  4.8333E-01
time,fu0,fu1,fu =   4.3200E+04 -4.5368E-02 -3.5633E-02 -4.0338E-02  5.166666666666667E-01  4.833333333333333E-01
 cg2d: Sum(rhs),rhsMax =   3.31609739667726E-14  5.05307478634997E+00
(PID.TID 0000.0001)                    cg2d_init_res =    3.38995595512732E+00
(PID.TID 0000.0001)                       cg2d_iters =    26
(PID.TID 0000.0001)                         cg2d_res =    3.27235811501387E-14
(PID.TID 0000.0001) // =======================================================
(PID.TID 0000.0001) // Begin MONITOR dynamic field statistics
(PID.TID 0000.0001) // =======================================================
(PID.TID 0000.0001) %MON time_tsnumber                =                     2
(PID.TID 0000.0001) %MON time_secondsf                =   8.6400000000000E+04
(PID.TID 0000.0001) %MON dynstat_eta_max              =   3.7996350299037E-01
(PID.TID 0000.0001) %MON dynstat_eta_min              =  -2.5476239191406E-01
(PID.TID 0000.0001) %MON dynstat_eta_mean             =  -3.1812450418908E-17
(PID.TID 0000.0001) %MON dynstat_eta_sd               =   6.0828555780823E-02
(PID.TID 0000.0001) %MON dynstat_eta_del2             =   2.2749561733586E-02
(PID.TID 0000.0001) %MON dynstat_uvel_max             =   1.9172487360011E-02
(PID.TID 0000.0001) %MON dynstat_uvel_min             =  -1.7250927260136E-02
(PID.TID 0000.0001) %MON dynstat_uvel_mean            =  -8.9861177575400E-04
(PID.TID 0000.0001) %MON dynstat_uvel_sd              =   2.1516973768490E-03
(PID.TID 0000.0001) %MON dynstat_uvel_del2            =   7.8802260320750E-04
(PID.TID 0000.0001) %MON dynstat_vvel_max             =   3.4255165244108E-02
(PID.TID 0000.0001) %MON dynstat_vvel_min             =  -1.8172003500733E-02
(PID.TID 0000.0001) %MON dynstat_vvel_mean            =   1.7999645254279E-03
(PID.TID 0000.0001) %MON dynstat_vvel_sd              =   6.3043444067307E-03
(PID.TID 0000.0001) %MON dynstat_vvel_del2            =   9.5266914454682E-04
(PID.TID 0000.0001) %MON dynstat_wvel_max             =   2.1016122705957E-04
(PID.TID 0000.0001) %MON dynstat_wvel_min             =  -1.4864155124061E-04
(PID.TID 0000.0001) %MON dynstat_wvel_mean            =  -4.1600697033394E-22
(PID.TID 0000.0001) %MON dynstat_wvel_sd              =   2.4440287857561E-05
(PID.TID 0000.0001) %MON dynstat_wvel_del2            =   1.0164133970013E-05
(PID.TID 0000.0001) %MON dynstat_theta_max            =   2.9679780295031E+01
(PID.TID 0000.0001) %MON dynstat_theta_min            =  -1.9014311300129E+00
(PID.TID 0000.0001) %MON dynstat_theta_mean           =   3.6189252167688E+00
(PID.TID 0000.0001) %MON dynstat_theta_sd             =   4.4153742627892E+00
(PID.TID 0000.0001) %MON dynstat_theta_del2           =   1.5035483852199E-01
(PID.TID 0000.0001) %MON dynstat_salt_max             =   3.7465078064329E+01
(PID.TID 0000.0001) %MON dynstat_salt_min             =   2.9755981120951E+01
(PID.TID 0000.0001) %MON dynstat_salt_mean            =   3.4717942224510E+01
(PID.TID 0000.0001) %MON dynstat_salt_sd              =   2.9609248308230E-01
(PID.TID 0000.0001) %MON dynstat_salt_del2            =   2.6597218787978E-02
(PID.TID 0000.0001) %MON dynstat_sst_max              =   2.9679780295031E+01
(PID.TID 0000.0001) %MON dynstat_sst_min              =  -1.9001515484822E+00
(PID.TID 0000.0001) %MON dynstat_sst_mean             =   1.8490348792591E+01
(PID.TID 0000.0001) %MON dynstat_sst_sd               =   9.1699155816504E+00
(PID.TID 0000.0001) %MON dynstat_sst_del2             =   2.7823578054160E-01
(PID.TID 0000.0001) %MON dynstat_sss_max              =   3.7465078064329E+01
(PID.TID 0000.0001) %MON dynstat_sss_min              =   2.9755981120951E+01
(PID.TID 0000.0001) %MON dynstat_sss_mean             =   3.4849368653107E+01
(PID.TID 0000.0001) %MON dynstat_sss_sd               =   9.6309974795763E-01
(PID.TID 0000.0001) %MON dynstat_sss_del2             =   8.3752301782010E-02
(PID.TID 0000.0001) %MON extforcing_qnet_max          =   4.2641490173340E+02
(PID.TID 0000.0001) %MON extforcing_qnet_min          =  -1.8679340387980E+02
(PID.TID 0000.0001) %MON extforcing_qnet_mean         =  -1.6693949360479E+01
(PID.TID 0000.0001) %MON extforcing_qnet_sd           =   1.1274774925900E+02
(PID.TID 0000.0001) %MON extforcing_qnet_del2         =   9.4916969262675E+00
(PID.TID 0000.0001) %MON extforcing_qsw_max           =   0.0000000000000E+00
(PID.TID 0000.0001) %MON extforcing_qsw_min           =   0.0000000000000E+00
(PID.TID 0000.0001) %MON extforcing_qsw_mean          =   0.0000000000000E+00
(PID.TID 0000.0001) %MON extforcing_qsw_sd            =   0.0000000000000E+00
(PID.TID 0000.0001) %MON extforcing_qsw_del2          =   0.0000000000000E+00
(PID.TID 0000.0001) %MON extforcing_empmr_max         =   0.0000000000000E+00
(PID.TID 0000.0001) %MON extforcing_empmr_min         =   0.0000000000000E+00
(PID.TID 0000.0001) %MON extforcing_empmr_mean        =   0.0000000000000E+00
(PID.TID 0000.0001) %MON extforcing_empmr_sd          =   0.0000000000000E+00
(PID.TID 0000.0001) %MON extforcing_empmr_del2        =   0.0000000000000E+00
(PID.TID 0000.0001) %MON extforcing_fu_max            =   2.7446071654558E-01
(PID.TID 0000.0001) %MON extforcing_fu_min            =  -1.5920810426275E-01
(PID.TID 0000.0001) %MON extforcing_fu_mean           =   1.6113281057605E-02
(PID.TID 0000.0001) %MON extforcing_fu_sd             =   9.0144235663722E-02
(PID.TID 0000.0001) %MON extforcing_fu_del2           =   7.3673706182092E-03
(PID.TID 0000.0001) %MON extforcing_fv_max            =   2.0858977933725E-01
(PID.TID 0000.0001) %MON extforcing_fv_min            =  -1.8661443367600E-01
(PID.TID 0000.0001) %MON extforcing_fv_mean           =  -6.3284543789868E-03
(PID.TID 0000.0001) %MON extforcing_fv_sd             =   4.5207594835594E-02
(PID.TID 0000.0001) %MON extforcing_fv_del2           =   4.3342138082014E-03
(PID.TID 0000.0001) %MON advcfl_uvel_max              =   4.7332848968983E-03
(PID.TID 0000.0001) %MON advcfl_vvel_max              =   3.3276146100651E-03
(PID.TID 0000.0001) %MON advcfl_wvel_max              =   2.9001024543634E-01
(PID.TID 0000.0001) %MON advcfl_W_hf_max              =   3.0080470789050E-01
(PID.TID 0000.0001) %MON pe_b_mean                    =   4.7347408224462E-06
(PID.TID 0000.0001) %MON ke_max                       =   4.1680256783798E-04
(PID.TID 0000.0001) %MON ke_mean                      =   2.1767935062777E-05
(PID.TID 0000.0001) %MON ke_vol                       =   1.3226782436723E+18
(PID.TID 0000.0001) %MON vort_r_min                   =  -1.0607129965654E-07
(PID.TID 0000.0001) %MON vort_r_max                   =   1.2898474317302E-07
(PID.TID 0000.0001) %MON vort_a_mean                  =  -2.5205769316135E-05
(PID.TID 0000.0001) %MON vort_a_sd                    =   7.3403112758903E-05
(PID.TID 0000.0001) %MON vort_p_mean                  =  -3.1758669460068E-05
(PID.TID 0000.0001) %MON vort_p_sd                    =   1.3126588789783E-04
(PID.TID 0000.0001) %MON surfExpan_theta_mean         =   8.4675871785434E-05
(PID.TID 0000.0001) %MON surfExpan_salt_mean          =   6.7417408050280E-06
(PID.TID 0000.0001) // =======================================================
(PID.TID 0000.0001) // End MONITOR dynamic field statistics
(PID.TID 0000.0001) // =======================================================
time,SST,SSS,fu,fv,Q,E-P,i0,i1,a,b =   8.6400E+04  1.1350E-01  3.4387E+01 -4.0176E-02 -6.3320E-02  2.6514E+02  0.0000E+00    12     1  5.3333E-01  4.6667E-01
time,fu0,fu1,fu =   8.6400E+04 -4.5368E-02 -3.5633E-02 -4.0176E-02  5.333333333333333E-01  4.666666666666667E-01
 cg2d: Sum(rhs),rhsMax =   7.56339435525888E-14  6.32564766002464E+00
(PID.TID 0000.0001)                    cg2d_init_res =    2.20333216836707E+00
(PID.TID 0000.0001)                       cg2d_iters =    26
(PID.TID 0000.0001)                         cg2d_res =    2.89408078853047E-14
(PID.TID 0000.0001) // =======================================================
(PID.TID 0000.0001) // Begin MONITOR dynamic field statistics
(PID.TID 0000.0001) // =======================================================
(PID.TID 0000.0001) %MON time_tsnumber                =                     3
(PID.TID 0000.0001) %MON time_secondsf                =   1.2960000000000E+05
(PID.TID 0000.0001) %MON dynstat_eta_max              =   5.1567421487633E-01
(PID.TID 0000.0001) %MON dynstat_eta_min              =  -3.8641400385102E-01
(PID.TID 0000.0001) %MON dynstat_eta_mean             =  -3.4351785122621E-17
(PID.TID 0000.0001) %MON dynstat_eta_sd               =   9.3638306814588E-02
(PID.TID 0000.0001) %MON dynstat_eta_del2             =   2.8112643824112E-02
(PID.TID 0000.0001) %MON dynstat_uvel_max             =   3.1251802107500E-02
(PID.TID 0000.0001) %MON dynstat_uvel_min             =  -3.0303578460306E-02
(PID.TID 0000.0001) %MON dynstat_uvel_mean            =  -1.5822544460655E-03
(PID.TID 0000.0001) %MON dynstat_uvel_sd              =   3.0666236610214E-03
(PID.TID 0000.0001) %MON dynstat_uvel_del2            =   1.1502574041044E-03
(PID.TID 0000.0001) %MON dynstat_vvel_max             =   4.5731664250802E-02
(PID.TID 0000.0001) %MON dynstat_vvel_min             =  -2.4647705916003E-02
(PID.TID 0000.0001) %MON dynstat_vvel_mean            =   2.6059158089981E-03
(PID.TID 0000.0001) %MON dynstat_vvel_sd              =   8.6513512809110E-03
(PID.TID 0000.0001) %MON dynstat_vvel_del2            =   1.3518196192773E-03
(PID.TID 0000.0001) %MON dynstat_wvel_max             =   1.9801391382863E-04
(PID.TID 0000.0001) %MON dynstat_wvel_min             =  -1.6855289575672E-04
(PID.TID 0000.0001) %MON dynstat_wvel_mean            =   1.7707304465888E-21
(PID.TID 0000.0001) %MON dynstat_wvel_sd              =   2.7017828528931E-05
(PID.TID 0000.0001) %MON dynstat_wvel_del2            =   8.5236903271538E-06
(PID.TID 0000.0001) %MON dynstat_theta_max            =   2.9643443830217E+01
(PID.TID 0000.0001) %MON dynstat_theta_min            =  -1.9087590263304E+00
(PID.TID 0000.0001) %MON dynstat_theta_mean           =   3.6177488854711E+00
(PID.TID 0000.0001) %MON dynstat_theta_sd             =   4.4129428216892E+00
(PID.TID 0000.0001) %MON dynstat_theta_del2           =   1.4835691873173E-01
(PID.TID 0000.0001) %MON dynstat_salt_max             =   3.7460691307859E+01
(PID.TID 0000.0001) %MON dynstat_salt_min             =   2.9758546957848E+01
(PID.TID 0000.0001) %MON dynstat_salt_mean            =   3.4717844476633E+01
(PID.TID 0000.0001) %MON dynstat_salt_sd              =   2.9611374615882E-01
(PID.TID 0000.0001) %MON dynstat_salt_del2            =   2.6535141517329E-02
(PID.TID 0000.0001) %MON dynstat_sst_max              =   2.9643443830217E+01
(PID.TID 0000.0001) %MON dynstat_sst_min              =  -1.9007429663071E+00
(PID.TID 0000.0001) %MON dynstat_sst_mean             =   1.8492873315518E+01
(PID.TID 0000.0001) %MON dynstat_sst_sd               =   9.1610360427847E+00
(PID.TID 0000.0001) %MON dynstat_sst_del2             =   2.7460486630119E-01
(PID.TID 0000.0001) %MON dynstat_sss_max              =   3.7460691307859E+01
(PID.TID 0000.0001) %MON dynstat_sss_min              =   2.9758546957848E+01
(PID.TID 0000.0001) %MON dynstat_sss_mean             =   3.4849198462054E+01
(PID.TID 0000.0001) %MON dynstat_sss_sd               =   9.6332283494173E-01
(PID.TID 0000.0001) %MON dynstat_sss_del2             =   8.3546296347506E-02
(PID.TID 0000.0001) %MON extforcing_qnet_max          =   4.2693899536133E+02
(PID.TID 0000.0001) %MON extforcing_qnet_min          =  -1.8655982259115E+02
(PID.TID 0000.0001) %MON extforcing_qnet_mean         =  -1.6687693382567E+01
(PID.TID 0000.0001) %MON extforcing_qnet_sd           =   1.1263946608433E+02
(PID.TID 0000.0001) %MON extforcing_qnet_del2         =   9.4914987500819E+00
(PID.TID 0000.0001) %MON extforcing_qsw_max           =   0.0000000000000E+00
(PID.TID 0000.0001) %MON extforcing_qsw_min           =   0.0000000000000E+00
(PID.TID 0000.0001) %MON extforcing_qsw_mean          =   0.0000000000000E+00
(PID.TID 0000.0001) %MON extforcing_qsw_sd            =   0.0000000000000E+00
(PID.TID 0000.0001) %MON extforcing_qsw_del2          =   0.0000000000000E+00
(PID.TID 0000.0001) %MON extforcing_empmr_max         =   0.0000000000000E+00
(PID.TID 0000.0001) %MON extforcing_empmr_min         =   0.0000000000000E+00
(PID.TID 0000.0001) %MON extforcing_empmr_mean        =   0.0000000000000E+00
(PID.TID 0000.0001) %MON extforcing_empmr_sd          =   0.0000000000000E+00
(PID.TID 0000.0001) %MON extforcing_empmr_del2        =   0.0000000000000E+00
(PID.TID 0000.0001) %MON extforcing_fu_max            =   2.7403144240379E-01
(PID.TID 0000.0001) %MON extforcing_fu_min            =  -1.5949268937111E-01
(PID.TID 0000.0001) %MON extforcing_fu_mean           =   1.6109434647086E-02
(PID.TID 0000.0001) %MON extforcing_fu_sd             =   9.0138031840955E-02
(PID.TID 0000.0001) %MON extforcing_fu_del2           =   7.3647677160333E-03
(PID.TID 0000.0001) %MON extforcing_fv_max            =   2.0882657567660E-01
(PID.TID 0000.0001) %MON extforcing_fv_min            =  -1.8632210493088E-01
(PID.TID 0000.0001) %MON extforcing_fv_mean           =  -6.2915731155564E-03
(PID.TID 0000.0001) %MON extforcing_fv_sd             =   4.5261152700224E-02
(PID.TID 0000.0001) %MON extforcing_fv_del2           =   4.3343836405753E-03
(PID.TID 0000.0001) %MON advcfl_uvel_max              =   5.9878839558454E-03
(PID.TID 0000.0001) %MON advcfl_vvel_max              =   4.4424644581078E-03
(PID.TID 0000.0001) %MON advcfl_wvel_max              =   2.1241151861962E-01
(PID.TID 0000.0001) %MON advcfl_W_hf_max              =   2.1701525907288E-01
(PID.TID 0000.0001) %MON pe_b_mean                    =   1.1219882385552E-05
(PID.TID 0000.0001) %MON ke_max                       =   8.0775798364935E-04
(PID.TID 0000.0001) %MON ke_mean                      =   4.2060135808316E-05
(PID.TID 0000.0001) %MON ke_vol                       =   1.3226782436723E+18
(PID.TID 0000.0001) %MON vort_r_min                   =  -1.5859369829061E-07
(PID.TID 0000.0001) %MON vort_r_max                   =   1.8493361935290E-07
(PID.TID 0000.0001) %MON vort_a_mean                  =  -2.5205769323954E-05
(PID.TID 0000.0001) %MON vort_a_sd                    =   7.3402977534559E-05
(PID.TID 0000.0001) %MON vort_p_mean                  =  -3.1758669469920E-05
(PID.TID 0000.0001) %MON vort_p_sd                    =   1.3126560816928E-04
(PID.TID 0000.0001) %MON surfExpan_theta_mean         =   1.1378567711345E-04
(PID.TID 0000.0001) %MON surfExpan_salt_mean          =   9.3763517654641E-06
(PID.TID 0000.0001) // =======================================================
(PID.TID 0000.0001) // End MONITOR dynamic field statistics
(PID.TID 0000.0001) // =======================================================
time,SST,SSS,fu,fv,Q,E-P,i0,i1,a,b =   1.2960E+05  1.4368E-01  3.4399E+01 -4.0014E-02 -6.3103E-02  2.6516E+02  0.0000E+00    12     1  5.5000E-01  4.5000E-01
time,fu0,fu1,fu =   1.2960E+05 -4.5368E-02 -3.5633E-02 -4.0014E-02  5.500000000000000E-01  4.500000000000000E-01
 cg2d: Sum(rhs),rhsMax =   5.70515856779252E-14  6.76202107413721E+00
(PID.TID 0000.0001)                    cg2d_init_res =    1.89610531870848E+00
(PID.TID 0000.0001)                       cg2d_iters =    26
(PID.TID 0000.0001)                         cg2d_res =    2.59980546628646E-14
(PID.TID 0000.0001) // =======================================================
(PID.TID 0000.0001) // Begin MONITOR dynamic field statistics
(PID.TID 0000.0001) // =======================================================
(PID.TID 0000.0001) %MON time_tsnumber                =                     4
(PID.TID 0000.0001) %MON time_secondsf                =   1.7280000000000E+05
(PID.TID 0000.0001) %MON dynstat_eta_max              =   5.9329401840226E-01
(PID.TID 0000.0001) %MON dynstat_eta_min              =  -5.0410858385664E-01
(PID.TID 0000.0001) %MON dynstat_eta_mean             =  -4.5446294569151E-17
(PID.TID 0000.0001) %MON dynstat_eta_sd               =   1.2393473424567E-01
(PID.TID 0000.0001) %MON dynstat_eta_del2             =   2.9314794897280E-02
(PID.TID 0000.0001) %MON dynstat_uvel_max             =   4.3686264854980E-02
(PID.TID 0000.0001) %MON dynstat_uvel_min             =  -4.2651280854842E-02
(PID.TID 0000.0001) %MON dynstat_uvel_mean            =  -2.3837133728694E-03
(PID.TID 0000.0001) %MON dynstat_uvel_sd              =   4.1263839641744E-03
(PID.TID 0000.0001) %MON dynstat_uvel_del2            =   1.4978966766741E-03
(PID.TID 0000.0001) %MON dynstat_vvel_max             =   5.3451573186600E-02
(PID.TID 0000.0001) %MON dynstat_vvel_min             =  -3.6381530520980E-02
(PID.TID 0000.0001) %MON dynstat_vvel_mean            =   3.3227658938919E-03
(PID.TID 0000.0001) %MON dynstat_vvel_sd              =   1.0605847032743E-02
(PID.TID 0000.0001) %MON dynstat_vvel_del2            =   1.7518240773529E-03
(PID.TID 0000.0001) %MON dynstat_wvel_max             =   2.0352789063149E-04
(PID.TID 0000.0001) %MON dynstat_wvel_min             =  -2.0405782245473E-04
(PID.TID 0000.0001) %MON dynstat_wvel_mean            =   1.9621390680497E-22
(PID.TID 0000.0001) %MON dynstat_wvel_sd              =   2.8759593673433E-05
(PID.TID 0000.0001) %MON dynstat_wvel_del2            =   8.1000791889092E-06
(PID.TID 0000.0001) %MON dynstat_theta_max            =   2.9648078951546E+01
(PID.TID 0000.0001) %MON dynstat_theta_min            =  -1.9200766212865E+00
(PID.TID 0000.0001) %MON dynstat_theta_mean           =   3.6163026122999E+00
(PID.TID 0000.0001) %MON dynstat_theta_sd             =   4.4099799675593E+00
(PID.TID 0000.0001) %MON dynstat_theta_del2           =   1.4738358769580E-01
(PID.TID 0000.0001) %MON dynstat_salt_max             =   3.7456760004436E+01
(PID.TID 0000.0001) %MON dynstat_salt_min             =   2.9761450271828E+01
(PID.TID 0000.0001) %MON dynstat_salt_mean            =   3.4717720918230E+01
(PID.TID 0000.0001) %MON dynstat_salt_sd              =   2.9612736919676E-01
(PID.TID 0000.0001) %MON dynstat_salt_del2            =   2.6454243587265E-02
(PID.TID 0000.0001) %MON dynstat_sst_max              =   2.9648078951546E+01
(PID.TID 0000.0001) %MON dynstat_sst_min              =  -1.9010928978237E+00
(PID.TID 0000.0001) %MON dynstat_sst_mean             =   1.8494256699592E+01
(PID.TID 0000.0001) %MON dynstat_sst_sd               =   9.1491904705158E+00
(PID.TID 0000.0001) %MON dynstat_sst_del2             =   2.7343839040633E-01
(PID.TID 0000.0001) %MON dynstat_sss_max              =   3.7456760004436E+01
(PID.TID 0000.0001) %MON dynstat_sss_min              =   2.9761450271828E+01
(PID.TID 0000.0001) %MON dynstat_sss_mean             =   3.4849073848697E+01
(PID.TID 0000.0001) %MON dynstat_sss_sd               =   9.6368634496282E-01
(PID.TID 0000.0001) %MON dynstat_sss_del2             =   8.3510361449132E-02
(PID.TID 0000.0001) %MON extforcing_qnet_max          =   4.2746308898926E+02
(PID.TID 0000.0001) %MON extforcing_qnet_min          =  -1.8632624130249E+02
(PID.TID 0000.0001) %MON extforcing_qnet_mean         =  -1.6681437404656E+01
(PID.TID 0000.0001) %MON extforcing_qnet_sd           =   1.1253182025933E+02
(PID.TID 0000.0001) %MON extforcing_qnet_del2         =   9.4918268925661E+00
(PID.TID 0000.0001) %MON extforcing_qsw_max           =   0.0000000000000E+00
(PID.TID 0000.0001) %MON extforcing_qsw_min           =   0.0000000000000E+00
(PID.TID 0000.0001) %MON extforcing_qsw_mean          =   0.0000000000000E+00
(PID.TID 0000.0001) %MON extforcing_qsw_sd            =   0.0000000000000E+00
(PID.TID 0000.0001) %MON extforcing_qsw_del2          =   0.0000000000000E+00
(PID.TID 0000.0001) %MON extforcing_empmr_max         =   0.0000000000000E+00
(PID.TID 0000.0001) %MON extforcing_empmr_min         =   0.0000000000000E+00
(PID.TID 0000.0001) %MON extforcing_empmr_mean        =   0.0000000000000E+00
(PID.TID 0000.0001) %MON extforcing_empmr_sd          =   0.0000000000000E+00
(PID.TID 0000.0001) %MON extforcing_empmr_del2        =   0.0000000000000E+00
(PID.TID 0000.0001) %MON extforcing_fu_max            =   2.7360216826200E-01
(PID.TID 0000.0001) %MON extforcing_fu_min            =  -1.5989939942956E-01
(PID.TID 0000.0001) %MON extforcing_fu_mean           =   1.6105588236568E-02
(PID.TID 0000.0001) %MON extforcing_fu_sd             =   9.0134543922067E-02
(PID.TID 0000.0001) %MON extforcing_fu_del2           =   7.3632794450082E-03
(PID.TID 0000.0001) %MON extforcing_fv_max            =   2.0906337201595E-01
(PID.TID 0000.0001) %MON extforcing_fv_min            =  -1.8602977618575E-01
(PID.TID 0000.0001) %MON extforcing_fv_mean           =  -6.2546918521259E-03
(PID.TID 0000.0001) %MON extforcing_fv_sd             =   4.5318552119942E-02
(PID.TID 0000.0001) %MON extforcing_fv_del2           =   4.3358782801361E-03
(PID.TID 0000.0001) %MON advcfl_uvel_max              =   9.2233713664042E-03
(PID.TID 0000.0001) %MON advcfl_vvel_max              =   5.1923917049936E-03
(PID.TID 0000.0001) %MON advcfl_wvel_max              =   2.3975278708235E-01
(PID.TID 0000.0001) %MON advcfl_W_hf_max              =   2.4014061991247E-01
(PID.TID 0000.0001) %MON pe_b_mean                    =   1.9654738944468E-05
(PID.TID 0000.0001) %MON ke_max                       =   1.2530860248161E-03
(PID.TID 0000.0001) %MON ke_mean                      =   6.5772785574438E-05
(PID.TID 0000.0001) %MON ke_vol                       =   1.3226782436723E+18
(PID.TID 0000.0001) %MON vort_r_min                   =  -2.0762258865159E-07
(PID.TID 0000.0001) %MON vort_r_max                   =   2.3456146061092E-07
(PID.TID 0000.0001) %MON vort_a_mean                  =  -2.5205769320379E-05
(PID.TID 0000.0001) %MON vort_a_sd                    =   7.3402823138307E-05
(PID.TID 0000.0001) %MON vort_p_mean                  =  -3.1758669465416E-05
(PID.TID 0000.0001) %MON vort_p_sd                    =   1.3126523994618E-04
(PID.TID 0000.0001) %MON surfExpan_theta_mean         =   1.3601370921903E-04
(PID.TID 0000.0001) %MON surfExpan_salt_mean          =   1.1328963757680E-05
(PID.TID 0000.0001) // =======================================================
(PID.TID 0000.0001) // End MONITOR dynamic field statistics
(PID.TID 0000.0001) // =======================================================
time,SST,SSS,fu,fv,Q,E-P,i0,i1,a,b =   1.7280E+05  1.7385E-01  3.4410E+01 -3.9851E-02 -6.2886E-02  2.6519E+02  0.0000E+00    12     1  5.6667E-01  4.3333E-01
time,fu0,fu1,fu =   1.7280E+05 -4.5368E-02 -3.5633E-02 -3.9851E-02  5.666666666666667E-01  4.333333333333333E-01
 cg2d: Sum(rhs),rhsMax =  -3.60458191073221E-14  6.91128535917370E+00
(PID.TID 0000.0001)                    cg2d_init_res =    1.79448473068186E+00
(PID.TID 0000.0001)                       cg2d_iters =    26
(PID.TID 0000.0001)                         cg2d_res =    2.69137332059715E-14
(PID.TID 0000.0001) // =======================================================
(PID.TID 0000.0001) // Begin MONITOR dynamic field statistics
(PID.TID 0000.0001) // =======================================================
(PID.TID 0000.0001) %MON time_tsnumber                =                     5
(PID.TID 0000.0001) %MON time_secondsf                =   2.1600000000000E+05
(PID.TID 0000.0001) %MON dynstat_eta_max              =   6.3900497327894E-01
(PID.TID 0000.0001) %MON dynstat_eta_min              =  -5.8447238322923E-01
(PID.TID 0000.0001) %MON dynstat_eta_mean             =  -1.2473719273797E-17
(PID.TID 0000.0001) %MON dynstat_eta_sd               =   1.5275880040740E-01
(PID.TID 0000.0001) %MON dynstat_eta_del2             =   2.8806382883930E-02
(PID.TID 0000.0001) %MON dynstat_uvel_max             =   5.5998831652931E-02
(PID.TID 0000.0001) %MON dynstat_uvel_min             =  -5.2981187041669E-02
(PID.TID 0000.0001) %MON dynstat_uvel_mean            =  -3.2726927257431E-03
(PID.TID 0000.0001) %MON dynstat_uvel_sd              =   5.3068960829139E-03
(PID.TID 0000.0001) %MON dynstat_uvel_del2            =   1.8095343057186E-03
(PID.TID 0000.0001) %MON dynstat_vvel_max             =   5.8202865672246E-02
(PID.TID 0000.0001) %MON dynstat_vvel_min             =  -4.7560588483780E-02
(PID.TID 0000.0001) %MON dynstat_vvel_mean            =   3.9344607448417E-03
(PID.TID 0000.0001) %MON dynstat_vvel_sd              =   1.2202469477610E-02
(PID.TID 0000.0001) %MON dynstat_vvel_del2            =   2.1145113469144E-03
(PID.TID 0000.0001) %MON dynstat_wvel_max             =   2.3127680629892E-04
(PID.TID 0000.0001) %MON dynstat_wvel_min             =  -2.3634529546464E-04
(PID.TID 0000.0001) %MON dynstat_wvel_mean            =   1.5110386057043E-21
(PID.TID 0000.0001) %MON dynstat_wvel_sd              =   3.0514007400765E-05
(PID.TID 0000.0001) %MON dynstat_wvel_del2            =   8.8412037450757E-06
(PID.TID 0000.0001) %MON dynstat_theta_max            =   2.9678087384124E+01
(PID.TID 0000.0001) %MON dynstat_theta_min            =  -1.9398278089588E+00
(PID.TID 0000.0001) %MON dynstat_theta_mean           =   3.6146527045626E+00
(PID.TID 0000.0001) %MON dynstat_theta_sd             =   4.4065975733989E+00
(PID.TID 0000.0001) %MON dynstat_theta_del2           =   1.4687496934001E-01
(PID.TID 0000.0001) %MON dynstat_salt_max             =   3.7452672556853E+01
(PID.TID 0000.0001) %MON dynstat_salt_min             =   2.9764553863632E+01
(PID.TID 0000.0001) %MON dynstat_salt_mean            =   3.4717579972841E+01
(PID.TID 0000.0001) %MON dynstat_salt_sd              =   2.9615249737715E-01
(PID.TID 0000.0001) %MON dynstat_salt_del2            =   2.6392005643376E-02
(PID.TID 0000.0001) %MON dynstat_sst_max              =   2.9678087384124E+01
(PID.TID 0000.0001) %MON dynstat_sst_min              =  -1.9012852458231E+00
(PID.TID 0000.0001) %MON dynstat_sst_mean             =   1.8493689874192E+01
(PID.TID 0000.0001) %MON dynstat_sst_sd               =   9.1363684573963E+00
(PID.TID 0000.0001) %MON dynstat_sst_del2             =   2.7272147741029E-01
(PID.TID 0000.0001) %MON dynstat_sss_max              =   3.7452672556853E+01
(PID.TID 0000.0001) %MON dynstat_sss_min              =   2.9764553863632E+01
(PID.TID 0000.0001) %MON dynstat_sss_mean             =   3.4848802089970E+01
(PID.TID 0000.0001) %MON dynstat_sss_sd               =   9.6414789996299E-01
(PID.TID 0000.0001) %MON dynstat_sss_del2             =   8.3411213994820E-02
(PID.TID 0000.0001) %MON extforcing_qnet_max          =   4.2798718261719E+02
(PID.TID 0000.0001) %MON extforcing_qnet_min          =  -1.8609266001383E+02
(PID.TID 0000.0001) %MON extforcing_qnet_mean         =  -1.6675181426744E+01
(PID.TID 0000.0001) %MON extforcing_qnet_sd           =   1.1242481361476E+02
(PID.TID 0000.0001) %MON extforcing_qnet_del2         =   9.4925698128427E+00
(PID.TID 0000.0001) %MON extforcing_qsw_max           =   0.0000000000000E+00
(PID.TID 0000.0001) %MON extforcing_qsw_min           =   0.0000000000000E+00
(PID.TID 0000.0001) %MON extforcing_qsw_mean          =   0.0000000000000E+00
(PID.TID 0000.0001) %MON extforcing_qsw_sd            =   0.0000000000000E+00
(PID.TID 0000.0001) %MON extforcing_qsw_del2          =   0.0000000000000E+00
(PID.TID 0000.0001) %MON extforcing_empmr_max         =   0.0000000000000E+00
(PID.TID 0000.0001) %MON extforcing_empmr_min         =   0.0000000000000E+00
(PID.TID 0000.0001) %MON extforcing_empmr_mean        =   0.0000000000000E+00
(PID.TID 0000.0001) %MON extforcing_empmr_sd          =   0.0000000000000E+00
(PID.TID 0000.0001) %MON extforcing_empmr_del2        =   0.0000000000000E+00
(PID.TID 0000.0001) %MON extforcing_fu_max            =   2.7317289412022E-01
(PID.TID 0000.0001) %MON extforcing_fu_min            =  -1.6030610948801E-01
(PID.TID 0000.0001) %MON extforcing_fu_mean           =   1.6101741826049E-02
(PID.TID 0000.0001) %MON extforcing_fu_sd             =   9.0133772222350E-02
(PID.TID 0000.0001) %MON extforcing_fu_del2           =   7.3624077517240E-03
(PID.TID 0000.0001) %MON extforcing_fv_max            =   2.0930016835531E-01
(PID.TID 0000.0001) %MON extforcing_fv_min            =  -1.8573744744062E-01
(PID.TID 0000.0001) %MON extforcing_fv_mean           =  -6.2178105886955E-03
(PID.TID 0000.0001) %MON extforcing_fv_sd             =   4.5379778517573E-02
(PID.TID 0000.0001) %MON extforcing_fv_del2           =   4.3389629098033E-03
(PID.TID 0000.0001) %MON advcfl_uvel_max              =   1.1918066116722E-02
(PID.TID 0000.0001) %MON advcfl_vvel_max              =   5.6539416691891E-03
(PID.TID 0000.0001) %MON advcfl_wvel_max              =   2.4864470743807E-01
(PID.TID 0000.0001) %MON advcfl_W_hf_max              =   2.5255153606625E-01
(PID.TID 0000.0001) %MON pe_b_mean                    =   2.9860266448762E-05
(PID.TID 0000.0001) %MON ke_max                       =   1.7534145000100E-03
(PID.TID 0000.0001) %MON ke_mean                      =   9.1458391352503E-05
(PID.TID 0000.0001) %MON ke_vol                       =   1.3226782436723E+18
(PID.TID 0000.0001) %MON vort_r_min                   =  -2.5047701280380E-07
(PID.TID 0000.0001) %MON vort_r_max                   =   2.7640260977285E-07
(PID.TID 0000.0001) %MON vort_a_mean                  =  -2.5205769312510E-05
(PID.TID 0000.0001) %MON vort_a_sd                    =   7.3402654508714E-05
(PID.TID 0000.0001) %MON vort_p_mean                  =  -3.1758669455500E-05
(PID.TID 0000.0001) %MON vort_p_sd                    =   1.3126478929844E-04
(PID.TID 0000.0001) %MON surfExpan_theta_mean         =   1.5219071290827E-04
(PID.TID 0000.0001) %MON surfExpan_salt_mean          =   1.2646148696214E-05
(PID.TID 0000.0001) // =======================================================
(PID.TID 0000.0001) // End MONITOR dynamic field statistics
(PID.TID 0000.0001) // =======================================================
time,SST,SSS,fu,fv,Q,E-P,i0,i1,a,b =   2.1600E+05  2.0403E-01  3.4422E+01 -3.9689E-02 -6.2670E-02  2.6521E+02  0.0000E+00    12     1  5.8333E-01  4.1667E-01
time,fu0,fu1,fu =   2.1600E+05 -4.5368E-02 -3.5633E-02 -3.9689E-02  5.833333333333334E-01  4.166666666666666E-01
 cg2d: Sum(rhs),rhsMax =   1.68404352962614E-13  6.96038704691245E+00
(PID.TID 0000.0001)                    cg2d_init_res =    1.72278076012091E+00
(PID.TID 0000.0001)                       cg2d_iters =    26
(PID.TID 0000.0001)                         cg2d_res =    2.75684824909016E-14
(PID.TID 0000.0001) // =======================================================
(PID.TID 0000.0001) // Begin MONITOR dynamic field statistics
(PID.TID 0000.0001) // =======================================================
(PID.TID 0000.0001) %MON time_tsnumber                =                     6
(PID.TID 0000.0001) %MON time_secondsf                =   2.5920000000000E+05
(PID.TID 0000.0001) %MON dynstat_eta_max              =   7.2958995168714E-01
(PID.TID 0000.0001) %MON dynstat_eta_min              =  -6.4973671252340E-01
(PID.TID 0000.0001) %MON dynstat_eta_mean             =  -3.0070825937915E-17
(PID.TID 0000.0001) %MON dynstat_eta_sd               =   1.8064964564323E-01
(PID.TID 0000.0001) %MON dynstat_eta_del2             =   2.7904390834308E-02
(PID.TID 0000.0001) %MON dynstat_uvel_max             =   6.7882389544726E-02
(PID.TID 0000.0001) %MON dynstat_uvel_min             =  -6.1365546380992E-02
(PID.TID 0000.0001) %MON dynstat_uvel_mean            =  -4.2172617587701E-03
(PID.TID 0000.0001) %MON dynstat_uvel_sd              =   6.5689951931148E-03
(PID.TID 0000.0001) %MON dynstat_uvel_del2            =   2.0901329430136E-03
(PID.TID 0000.0001) %MON dynstat_vvel_max             =   6.7670233653228E-02
(PID.TID 0000.0001) %MON dynstat_vvel_min             =  -5.8052700831709E-02
(PID.TID 0000.0001) %MON dynstat_vvel_mean            =   4.4282923497402E-03
(PID.TID 0000.0001) %MON dynstat_vvel_sd              =   1.3457802806846E-02
(PID.TID 0000.0001) %MON dynstat_vvel_del2            =   2.4300143064234E-03
(PID.TID 0000.0001) %MON dynstat_wvel_max             =   2.5362562024065E-04
(PID.TID 0000.0001) %MON dynstat_wvel_min             =  -2.6313730497210E-04
(PID.TID 0000.0001) %MON dynstat_wvel_mean            =   1.2061610267399E-21
(PID.TID 0000.0001) %MON dynstat_wvel_sd              =   3.2290257703936E-05
(PID.TID 0000.0001) %MON dynstat_wvel_del2            =   9.9924480181001E-06
(PID.TID 0000.0001) %MON dynstat_theta_max            =   2.9706943550884E+01
(PID.TID 0000.0001) %MON dynstat_theta_min            =  -1.9677341438054E+00
(PID.TID 0000.0001) %MON dynstat_theta_mean           =   3.6128620045739E+00
(PID.TID 0000.0001) %MON dynstat_theta_sd             =   4.4028698749240E+00
(PID.TID 0000.0001) %MON dynstat_theta_del2           =   1.4641804406809E-01
(PID.TID 0000.0001) %MON dynstat_salt_max             =   3.7448393575785E+01
(PID.TID 0000.0001) %MON dynstat_salt_min             =   2.9767719001250E+01
(PID.TID 0000.0001) %MON dynstat_salt_mean            =   3.4717428496362E+01
(PID.TID 0000.0001) %MON dynstat_salt_sd              =   2.9617267307879E-01
(PID.TID 0000.0001) %MON dynstat_salt_del2            =   2.6334996769512E-02
(PID.TID 0000.0001) %MON dynstat_sst_max              =   2.9706943550884E+01
(PID.TID 0000.0001) %MON dynstat_sst_min              =  -1.9013267779816E+00
(PID.TID 0000.0001) %MON dynstat_sst_mean             =   1.8492110725092E+01
(PID.TID 0000.0001) %MON dynstat_sst_sd               =   9.1222350196607E+00
(PID.TID 0000.0001) %MON dynstat_sst_del2             =   2.7256594551427E-01
(PID.TID 0000.0001) %MON dynstat_sss_max              =   3.7448393575785E+01
(PID.TID 0000.0001) %MON dynstat_sss_min              =   2.9767719001250E+01
(PID.TID 0000.0001) %MON dynstat_sss_mean             =   3.4848440222778E+01
(PID.TID 0000.0001) %MON dynstat_sss_sd               =   9.6465726181226E-01
(PID.TID 0000.0001) %MON dynstat_sss_del2             =   8.3370576516690E-02
(PID.TID 0000.0001) %MON extforcing_qnet_max          =   4.2851127624512E+02
(PID.TID 0000.0001) %MON extforcing_qnet_min          =  -1.8585907872518E+02
(PID.TID 0000.0001) %MON extforcing_qnet_mean         =  -1.6668925448832E+01
(PID.TID 0000.0001) %MON extforcing_qnet_sd           =   1.1231844797748E+02
(PID.TID 0000.0001) %MON extforcing_qnet_del2         =   9.4938612179245E+00
(PID.TID 0000.0001) %MON extforcing_qsw_max           =   0.0000000000000E+00
(PID.TID 0000.0001) %MON extforcing_qsw_min           =   0.0000000000000E+00
(PID.TID 0000.0001) %MON extforcing_qsw_mean          =   0.0000000000000E+00
(PID.TID 0000.0001) %MON extforcing_qsw_sd            =   0.0000000000000E+00
(PID.TID 0000.0001) %MON extforcing_qsw_del2          =   0.0000000000000E+00
(PID.TID 0000.0001) %MON extforcing_empmr_max         =   0.0000000000000E+00
(PID.TID 0000.0001) %MON extforcing_empmr_min         =   0.0000000000000E+00
(PID.TID 0000.0001) %MON extforcing_empmr_mean        =   0.0000000000000E+00
(PID.TID 0000.0001) %MON extforcing_empmr_sd          =   0.0000000000000E+00
(PID.TID 0000.0001) %MON extforcing_empmr_del2        =   0.0000000000000E+00
(PID.TID 0000.0001) %MON extforcing_fu_max            =   2.7274361997843E-01
(PID.TID 0000.0001) %MON extforcing_fu_min            =  -1.6071281954646E-01
(PID.TID 0000.0001) %MON extforcing_fu_mean           =   1.6097895415531E-02
(PID.TID 0000.0001) %MON extforcing_fu_sd             =   9.0135716811571E-02
(PID.TID 0000.0001) %MON extforcing_fu_del2           =   7.3621867243110E-03
(PID.TID 0000.0001) %MON extforcing_fv_max            =   2.0962250605226E-01
(PID.TID 0000.0001) %MON extforcing_fv_min            =  -1.8544511869550E-01
(PID.TID 0000.0001) %MON extforcing_fv_mean           =  -6.1809293252652E-03
(PID.TID 0000.0001) %MON extforcing_fv_sd             =   4.5444816425210E-02
(PID.TID 0000.0001) %MON extforcing_fv_del2           =   4.3430368437716E-03
(PID.TID 0000.0001) %MON advcfl_uvel_max              =   1.4693159421239E-02
(PID.TID 0000.0001) %MON advcfl_vvel_max              =   6.5736205493778E-03
(PID.TID 0000.0001) %MON advcfl_wvel_max              =   2.1404211742014E-01
(PID.TID 0000.0001) %MON advcfl_W_hf_max              =   2.2284403298520E-01
(PID.TID 0000.0001) %MON pe_b_mean                    =   4.1759513279571E-05
(PID.TID 0000.0001) %MON ke_max                       =   2.3327856086139E-03
(PID.TID 0000.0001) %MON ke_mean                      =   1.1779760760600E-04
(PID.TID 0000.0001) %MON ke_vol                       =   1.3226782436723E+18
(PID.TID 0000.0001) %MON vort_r_min                   =  -2.8519676154124E-07
(PID.TID 0000.0001) %MON vort_r_max                   =   3.1017727646346E-07
(PID.TID 0000.0001) %MON vort_a_mean                  =  -2.5205769323534E-05
(PID.TID 0000.0001) %MON vort_a_sd                    =   7.3402476678101E-05
(PID.TID 0000.0001) %MON vort_p_mean                  =  -3.1758669469390E-05
(PID.TID 0000.0001) %MON vort_p_sd                    =   1.3126427087834E-04
(PID.TID 0000.0001) %MON surfExpan_theta_mean         =   1.6289428464911E-04
(PID.TID 0000.0001) %MON surfExpan_salt_mean          =   1.3420993768074E-05
(PID.TID 0000.0001) // =======================================================
(PID.TID 0000.0001) // End MONITOR dynamic field statistics
(PID.TID 0000.0001) // =======================================================
time,SST,SSS,fu,fv,Q,E-P,i0,i1,a,b =   2.5920E+05  2.3421E-01  3.4434E+01 -3.9527E-02 -6.2453E-02  2.6523E+02  0.0000E+00    12     1  6.0000E-01  4.0000E-01
time,fu0,fu1,fu =   2.5920E+05 -4.5368E-02 -3.5633E-02 -3.9527E-02  6.000000000000000E-01  4.000000000000000E-01
 cg2d: Sum(rhs),rhsMax =   7.20829645972643E-14  7.26221759046287E+00
(PID.TID 0000.0001)                    cg2d_init_res =    1.59109185563196E+00
(PID.TID 0000.0001)                       cg2d_iters =    26
(PID.TID 0000.0001)                         cg2d_res =    2.59473680525344E-14
(PID.TID 0000.0001) // =======================================================
(PID.TID 0000.0001) // Begin MONITOR dynamic field statistics
(PID.TID 0000.0001) // =======================================================
(PID.TID 0000.0001) %MON time_tsnumber                =                     7
(PID.TID 0000.0001) %MON time_secondsf                =   3.0240000000000E+05
(PID.TID 0000.0001) %MON dynstat_eta_max              =   8.3349049257095E-01
(PID.TID 0000.0001) %MON dynstat_eta_min              =  -7.0404089705895E-01
(PID.TID 0000.0001) %MON dynstat_eta_mean             =   9.7120604674752E-17
(PID.TID 0000.0001) %MON dynstat_eta_sd               =   2.0763529761449E-01
(PID.TID 0000.0001) %MON dynstat_eta_del2             =   2.7007523493302E-02
(PID.TID 0000.0001) %MON dynstat_uvel_max             =   7.9153516349538E-02
(PID.TID 0000.0001) %MON dynstat_uvel_min             =  -7.4904513892914E-02
(PID.TID 0000.0001) %MON dynstat_uvel_mean            =  -5.1848263512343E-03
(PID.TID 0000.0001) %MON dynstat_uvel_sd              =   7.8766086862008E-03
(PID.TID 0000.0001) %MON dynstat_uvel_del2            =   2.3442144215183E-03
(PID.TID 0000.0001) %MON dynstat_vvel_max             =   7.6954909115984E-02
(PID.TID 0000.0001) %MON dynstat_vvel_min             =  -6.8563182340792E-02
(PID.TID 0000.0001) %MON dynstat_vvel_mean            =   4.7959698767471E-03
(PID.TID 0000.0001) %MON dynstat_vvel_sd              =   1.4389978643214E-02
(PID.TID 0000.0001) %MON dynstat_vvel_del2            =   2.6997850438153E-03
(PID.TID 0000.0001) %MON dynstat_wvel_max             =   2.7057447325852E-04
(PID.TID 0000.0001) %MON dynstat_wvel_min             =  -2.8376270352973E-04
(PID.TID 0000.0001) %MON dynstat_wvel_mean            =  -1.2270795004094E-21
(PID.TID 0000.0001) %MON dynstat_wvel_sd              =   3.3916923808401E-05
(PID.TID 0000.0001) %MON dynstat_wvel_del2            =   1.0993499019281E-05
(PID.TID 0000.0001) %MON dynstat_theta_max            =   2.9717409421784E+01
(PID.TID 0000.0001) %MON dynstat_theta_min            =  -1.9995274354029E+00
(PID.TID 0000.0001) %MON dynstat_theta_mean           =   3.6109883410324E+00
(PID.TID 0000.0001) %MON dynstat_theta_sd             =   4.3988813169041E+00
(PID.TID 0000.0001) %MON dynstat_theta_del2           =   1.4586409971278E-01
(PID.TID 0000.0001) %MON dynstat_salt_max             =   3.7444325087805E+01
(PID.TID 0000.0001) %MON dynstat_salt_min             =   2.9770812898029E+01
(PID.TID 0000.0001) %MON dynstat_salt_mean            =   3.4717271973561E+01
(PID.TID 0000.0001) %MON dynstat_salt_sd              =   2.9618541538312E-01
(PID.TID 0000.0001) %MON dynstat_salt_del2            =   2.6285435022095E-02
(PID.TID 0000.0001) %MON dynstat_sst_max              =   2.9717409421784E+01
(PID.TID 0000.0001) %MON dynstat_sst_min              =  -1.9012765799338E+00
(PID.TID 0000.0001) %MON dynstat_sst_mean             =   1.8490117529308E+01
(PID.TID 0000.0001) %MON dynstat_sst_sd               =   9.1072188647181E+00
(PID.TID 0000.0001) %MON dynstat_sst_del2             =   2.7247267699620E-01
(PID.TID 0000.0001) %MON dynstat_sss_max              =   3.7444325087805E+01
(PID.TID 0000.0001) %MON dynstat_sss_min              =   2.9770812898029E+01
(PID.TID 0000.0001) %MON dynstat_sss_mean             =   3.4848054698687E+01
(PID.TID 0000.0001) %MON dynstat_sss_sd               =   9.6519297396785E-01
(PID.TID 0000.0001) %MON dynstat_sss_del2             =   8.3350760559934E-02
(PID.TID 0000.0001) %MON extforcing_qnet_max          =   4.2903536987305E+02
(PID.TID 0000.0001) %MON extforcing_qnet_min          =  -1.8562549743652E+02
(PID.TID 0000.0001) %MON extforcing_qnet_mean         =  -1.6662669470921E+01
(PID.TID 0000.0001) %MON extforcing_qnet_sd           =   1.1221272517031E+02
(PID.TID 0000.0001) %MON extforcing_qnet_del2         =   9.4953524693249E+00
(PID.TID 0000.0001) %MON extforcing_qsw_max           =   0.0000000000000E+00
(PID.TID 0000.0001) %MON extforcing_qsw_min           =   0.0000000000000E+00
(PID.TID 0000.0001) %MON extforcing_qsw_mean          =   0.0000000000000E+00
(PID.TID 0000.0001) %MON extforcing_qsw_sd            =   0.0000000000000E+00
(PID.TID 0000.0001) %MON extforcing_qsw_del2          =   0.0000000000000E+00
(PID.TID 0000.0001) %MON extforcing_empmr_max         =   0.0000000000000E+00
(PID.TID 0000.0001) %MON extforcing_empmr_min         =   0.0000000000000E+00
(PID.TID 0000.0001) %MON extforcing_empmr_mean        =   0.0000000000000E+00
(PID.TID 0000.0001) %MON extforcing_empmr_sd          =   0.0000000000000E+00
(PID.TID 0000.0001) %MON extforcing_empmr_del2        =   0.0000000000000E+00
(PID.TID 0000.0001) %MON extforcing_fu_max            =   2.7231434583664E-01
(PID.TID 0000.0001) %MON extforcing_fu_min            =  -1.6111952960491E-01
(PID.TID 0000.0001) %MON extforcing_fu_mean           =   1.6094049005012E-02
(PID.TID 0000.0001) %MON extforcing_fu_sd             =   9.0140377513934E-02
(PID.TID 0000.0001) %MON extforcing_fu_del2           =   7.3624722576328E-03
(PID.TID 0000.0001) %MON extforcing_fv_max            =   2.1056245863438E-01
(PID.TID 0000.0001) %MON extforcing_fv_min            =  -1.8515278995037E-01
(PID.TID 0000.0001) %MON extforcing_fv_mean           =  -6.1440480618347E-03
(PID.TID 0000.0001) %MON extforcing_fv_sd             =   4.5513649503191E-02
(PID.TID 0000.0001) %MON extforcing_fv_del2           =   4.3482985726563E-03
(PID.TID 0000.0001) %MON advcfl_uvel_max              =   1.7008868211235E-02
(PID.TID 0000.0001) %MON advcfl_vvel_max              =   7.4755523164386E-03
(PID.TID 0000.0001) %MON advcfl_wvel_max              =   1.8646721899601E-01
(PID.TID 0000.0001) %MON advcfl_W_hf_max              =   1.8449335441031E-01
(PID.TID 0000.0001) %MON pe_b_mean                    =   5.5167533777018E-05
(PID.TID 0000.0001) %MON ke_max                       =   3.1804920146517E-03
(PID.TID 0000.0001) %MON ke_mean                      =   1.4368901336238E-04
(PID.TID 0000.0001) %MON ke_vol                       =   1.3226782436723E+18
(PID.TID 0000.0001) %MON vort_r_min                   =  -3.1105440957120E-07
(PID.TID 0000.0001) %MON vort_r_max                   =   3.3689380999622E-07
(PID.TID 0000.0001) %MON vort_a_mean                  =  -2.5205769365180E-05
(PID.TID 0000.0001) %MON vort_a_sd                    =   7.3402294900238E-05
(PID.TID 0000.0001) %MON vort_p_mean                  =  -3.1758669521864E-05
(PID.TID 0000.0001) %MON vort_p_sd                    =   1.3126370207672E-04
(PID.TID 0000.0001) %MON surfExpan_theta_mean         =   1.6860369013313E-04
(PID.TID 0000.0001) %MON surfExpan_salt_mean          =   1.3730559952413E-05
(PID.TID 0000.0001) // =======================================================
(PID.TID 0000.0001) // End MONITOR dynamic field statistics
(PID.TID 0000.0001) // =======================================================
time,SST,SSS,fu,fv,Q,E-P,i0,i1,a,b =   3.0240E+05  2.6438E-01  3.4446E+01 -3.9365E-02 -6.2237E-02  2.6525E+02  0.0000E+00    12     1  6.1667E-01  3.8333E-01
time,fu0,fu1,fu =   3.0240E+05 -4.5368E-02 -3.5633E-02 -3.9365E-02  6.166666666666667E-01  3.833333333333333E-01
 cg2d: Sum(rhs),rhsMax =  -1.74462549441812E-13  7.87499194900245E+00
(PID.TID 0000.0001)                    cg2d_init_res =    1.41245791253939E+00
(PID.TID 0000.0001)                       cg2d_iters =    26
(PID.TID 0000.0001)                         cg2d_res =    2.31675107676035E-14
(PID.TID 0000.0001) // =======================================================
(PID.TID 0000.0001) // Begin MONITOR dynamic field statistics
(PID.TID 0000.0001) // =======================================================
(PID.TID 0000.0001) %MON time_tsnumber                =                     8
(PID.TID 0000.0001) %MON time_secondsf                =   3.4560000000000E+05
(PID.TID 0000.0001) %MON dynstat_eta_max              =   9.0735367710164E-01
(PID.TID 0000.0001) %MON dynstat_eta_min              =  -7.4823193921849E-01
(PID.TID 0000.0001) %MON dynstat_eta_mean             =   1.7467982797558E-16
(PID.TID 0000.0001) %MON dynstat_eta_sd               =   2.3350050952393E-01
(PID.TID 0000.0001) %MON dynstat_eta_del2             =   2.6394038144120E-02
(PID.TID 0000.0001) %MON dynstat_uvel_max             =   8.9752884934432E-02
(PID.TID 0000.0001) %MON dynstat_uvel_min             =  -9.3792769671150E-02
(PID.TID 0000.0001) %MON dynstat_uvel_mean            =  -6.1431838982918E-03
(PID.TID 0000.0001) %MON dynstat_uvel_sd              =   9.1955313862220E-03
(PID.TID 0000.0001) %MON dynstat_uvel_del2            =   2.5742472527776E-03
(PID.TID 0000.0001) %MON dynstat_vvel_max             =   8.3099354091284E-02
(PID.TID 0000.0001) %MON dynstat_vvel_min             =  -7.8090232840752E-02
(PID.TID 0000.0001) %MON dynstat_vvel_mean            =   5.0341137394924E-03
(PID.TID 0000.0001) %MON dynstat_vvel_sd              =   1.5022792725326E-02
(PID.TID 0000.0001) %MON dynstat_vvel_del2            =   2.9241682756452E-03
(PID.TID 0000.0001) %MON dynstat_wvel_max             =   2.8161796847891E-04
(PID.TID 0000.0001) %MON dynstat_wvel_min             =  -2.9811620276832E-04
(PID.TID 0000.0001) %MON dynstat_wvel_mean            =   1.8669737750070E-21
(PID.TID 0000.0001) %MON dynstat_wvel_sd              =   3.5230464930270E-05
(PID.TID 0000.0001) %MON dynstat_wvel_del2            =   1.1737611344474E-05
(PID.TID 0000.0001) %MON dynstat_theta_max            =   2.9704467184711E+01
(PID.TID 0000.0001) %MON dynstat_theta_min            =  -2.0326437169215E+00
(PID.TID 0000.0001) %MON dynstat_theta_mean           =   3.6090847634425E+00
(PID.TID 0000.0001) %MON dynstat_theta_sd             =   4.3947153635833E+00
(PID.TID 0000.0001) %MON dynstat_theta_del2           =   1.4520638850460E-01
(PID.TID 0000.0001) %MON dynstat_salt_max             =   3.7440569615491E+01
(PID.TID 0000.0001) %MON dynstat_salt_min             =   2.9773715405578E+01
(PID.TID 0000.0001) %MON dynstat_salt_mean            =   3.4717115126477E+01
(PID.TID 0000.0001) %MON dynstat_salt_sd              =   2.9618940098208E-01
(PID.TID 0000.0001) %MON dynstat_salt_del2            =   2.6239856314217E-02
(PID.TID 0000.0001) %MON dynstat_sst_max              =   2.9704467184711E+01
(PID.TID 0000.0001) %MON dynstat_sst_min              =  -1.9012074904869E+00
(PID.TID 0000.0001) %MON dynstat_sst_mean             =   1.8488132067088E+01
(PID.TID 0000.0001) %MON dynstat_sst_sd               =   9.0915469836058E+00
(PID.TID 0000.0001) %MON dynstat_sst_del2             =   2.7227818742648E-01
(PID.TID 0000.0001) %MON dynstat_sss_max              =   3.7440569615491E+01
(PID.TID 0000.0001) %MON dynstat_sss_min              =   2.9773715405578E+01
(PID.TID 0000.0001) %MON dynstat_sss_mean             =   3.4847700304448E+01
(PID.TID 0000.0001) %MON dynstat_sss_sd               =   9.6576636348857E-01
(PID.TID 0000.0001) %MON dynstat_sss_del2             =   8.3348551408044E-02
(PID.TID 0000.0001) %MON extforcing_qnet_max          =   4.2955946350098E+02
(PID.TID 0000.0001) %MON extforcing_qnet_min          =  -1.8539191614787E+02
(PID.TID 0000.0001) %MON extforcing_qnet_mean         =  -1.6656413493009E+01
(PID.TID 0000.0001) %MON extforcing_qnet_sd           =   1.1210764701191E+02
(PID.TID 0000.0001) %MON extforcing_qnet_del2         =   9.4970235630898E+00
(PID.TID 0000.0001) %MON extforcing_qsw_max           =   0.0000000000000E+00
(PID.TID 0000.0001) %MON extforcing_qsw_min           =   0.0000000000000E+00
(PID.TID 0000.0001) %MON extforcing_qsw_mean          =   0.0000000000000E+00
(PID.TID 0000.0001) %MON extforcing_qsw_sd            =   0.0000000000000E+00
(PID.TID 0000.0001) %MON extforcing_qsw_del2          =   0.0000000000000E+00
(PID.TID 0000.0001) %MON extforcing_empmr_max         =   0.0000000000000E+00
(PID.TID 0000.0001) %MON extforcing_empmr_min         =   0.0000000000000E+00
(PID.TID 0000.0001) %MON extforcing_empmr_mean        =   0.0000000000000E+00
(PID.TID 0000.0001) %MON extforcing_empmr_sd          =   0.0000000000000E+00
(PID.TID 0000.0001) %MON extforcing_empmr_del2        =   0.0000000000000E+00
(PID.TID 0000.0001) %MON extforcing_fu_max            =   2.7188507169485E-01
(PID.TID 0000.0001) %MON extforcing_fu_min            =  -1.6152623966336E-01
(PID.TID 0000.0001) %MON extforcing_fu_mean           =   1.6090202594494E-02
(PID.TID 0000.0001) %MON extforcing_fu_sd             =   9.0147753908164E-02
(PID.TID 0000.0001) %MON extforcing_fu_del2           =   7.3633563637293E-03
(PID.TID 0000.0001) %MON extforcing_fv_max            =   2.1150241121650E-01
(PID.TID 0000.0001) %MON extforcing_fv_min            =  -1.8486046120524E-01
(PID.TID 0000.0001) %MON extforcing_fv_mean           =  -6.1071667984044E-03
(PID.TID 0000.0001) %MON extforcing_fv_sd             =   4.5586260559939E-02
(PID.TID 0000.0001) %MON extforcing_fv_del2           =   4.3545288127825E-03
(PID.TID 0000.0001) %MON advcfl_uvel_max              =   1.8097694774776E-02
(PID.TID 0000.0001) %MON advcfl_vvel_max              =   8.0724358732642E-03
(PID.TID 0000.0001) %MON advcfl_wvel_max              =   2.0062571352169E-01
(PID.TID 0000.0001) %MON advcfl_W_hf_max              =   2.0082981873427E-01
(PID.TID 0000.0001) %MON pe_b_mean                    =   6.9768095079196E-05
(PID.TID 0000.0001) %MON ke_max                       =   4.1100414544121E-03
(PID.TID 0000.0001) %MON ke_mean                      =   1.6825800046852E-04
(PID.TID 0000.0001) %MON ke_vol                       =   1.3226782436723E+18
(PID.TID 0000.0001) %MON vort_r_min                   =  -3.2853109222037E-07
(PID.TID 0000.0001) %MON vort_r_max                   =   3.9683596699597E-07
(PID.TID 0000.0001) %MON vort_a_mean                  =  -2.5205769434239E-05
(PID.TID 0000.0001) %MON vort_a_sd                    =   7.3402114520931E-05
(PID.TID 0000.0001) %MON vort_p_mean                  =  -3.1758669608877E-05
(PID.TID 0000.0001) %MON vort_p_sd                    =   1.3126310127254E-04
(PID.TID 0000.0001) %MON surfExpan_theta_mean         =   1.6982688069652E-04
(PID.TID 0000.0001) %MON surfExpan_salt_mean          =   1.3628364237150E-05
(PID.TID 0000.0001) // =======================================================
(PID.TID 0000.0001) // End MONITOR dynamic field statistics
(PID.TID 0000.0001) // =======================================================
time,SST,SSS,fu,fv,Q,E-P,i0,i1,a,b =   3.4560E+05  2.9456E-01  3.4457E+01 -3.9202E-02 -6.2020E-02  2.6528E+02  0.0000E+00    12     1  6.3333E-01  3.6667E-01
time,fu0,fu1,fu =   3.4560E+05 -4.5368E-02 -3.5633E-02 -3.9202E-02  6.333333333333333E-01  3.666666666666667E-01
 cg2d: Sum(rhs),rhsMax =   7.00810937059870E-14  8.21213972807562E+00
(PID.TID 0000.0001)                    cg2d_init_res =    1.30379079634149E+00
(PID.TID 0000.0001)                       cg2d_iters =    25
(PID.TID 0000.0001)                         cg2d_res =    9.53315071524701E-14
(PID.TID 0000.0001) // =======================================================
(PID.TID 0000.0001) // Begin MONITOR dynamic field statistics
(PID.TID 0000.0001) // =======================================================
(PID.TID 0000.0001) %MON time_tsnumber                =                     9
(PID.TID 0000.0001) %MON time_secondsf                =   3.8880000000000E+05
(PID.TID 0000.0001) %MON dynstat_eta_max              =   9.5051431827123E-01
(PID.TID 0000.0001) %MON dynstat_eta_min              =  -8.3276606512452E-01
(PID.TID 0000.0001) %MON dynstat_eta_mean             =   1.6262355024299E-16
(PID.TID 0000.0001) %MON dynstat_eta_sd               =   2.5794380813484E-01
(PID.TID 0000.0001) %MON dynstat_eta_del2             =   2.5826658755857E-02
(PID.TID 0000.0001) %MON dynstat_uvel_max             =   9.9696982194895E-02
(PID.TID 0000.0001) %MON dynstat_uvel_min             =  -1.1010140875155E-01
(PID.TID 0000.0001) %MON dynstat_uvel_mean            =  -7.0614503343643E-03
(PID.TID 0000.0001) %MON dynstat_uvel_sd              =   1.0493347674851E-02
(PID.TID 0000.0001) %MON dynstat_uvel_del2            =   2.7782849221724E-03
(PID.TID 0000.0001) %MON dynstat_vvel_max             =   8.6409748077651E-02
(PID.TID 0000.0001) %MON dynstat_vvel_min             =  -8.6517734993588E-02
(PID.TID 0000.0001) %MON dynstat_vvel_mean            =   5.1443900300264E-03
(PID.TID 0000.0001) %MON dynstat_vvel_sd              =   1.5387370857051E-02
(PID.TID 0000.0001) %MON dynstat_vvel_del2            =   3.1045731133873E-03
(PID.TID 0000.0001) %MON dynstat_wvel_max             =   2.8593830653843E-04
(PID.TID 0000.0001) %MON dynstat_wvel_min             =  -3.0681344963151E-04
(PID.TID 0000.0001) %MON dynstat_wvel_mean            =  -4.5970180842658E-22
(PID.TID 0000.0001) %MON dynstat_wvel_sd              =   3.6129743601438E-05
(PID.TID 0000.0001) %MON dynstat_wvel_del2            =   1.2249198521689E-05
(PID.TID 0000.0001) %MON dynstat_theta_max            =   2.9672372723816E+01
(PID.TID 0000.0001) %MON dynstat_theta_min            =  -2.0644469613960E+00
(PID.TID 0000.0001) %MON dynstat_theta_mean           =   3.6071983685110E+00
(PID.TID 0000.0001) %MON dynstat_theta_sd             =   4.3904514066173E+00
(PID.TID 0000.0001) %MON dynstat_theta_del2           =   1.4452283838287E-01
(PID.TID 0000.0001) %MON dynstat_salt_max             =   3.7437195134482E+01
(PID.TID 0000.0001) %MON dynstat_salt_min             =   2.9776324644208E+01
(PID.TID 0000.0001) %MON dynstat_salt_mean            =   3.4716962231487E+01
(PID.TID 0000.0001) %MON dynstat_salt_sd              =   2.9618507731605E-01
(PID.TID 0000.0001) %MON dynstat_salt_del2            =   2.6194963123942E-02
(PID.TID 0000.0001) %MON dynstat_sst_max              =   2.9672372723816E+01
(PID.TID 0000.0001) %MON dynstat_sst_min              =  -1.9011760455528E+00
(PID.TID 0000.0001) %MON dynstat_sst_mean             =   1.8486147889524E+01
(PID.TID 0000.0001) %MON dynstat_sst_sd               =   9.0757371712228E+00
(PID.TID 0000.0001) %MON dynstat_sst_del2             =   2.7236561549394E-01
(PID.TID 0000.0001) %MON dynstat_sss_max              =   3.7437195134482E+01
(PID.TID 0000.0001) %MON dynstat_sss_min              =   2.9776324644208E+01
(PID.TID 0000.0001) %MON dynstat_sss_mean             =   3.4847363084497E+01
(PID.TID 0000.0001) %MON dynstat_sss_sd               =   9.6628778151641E-01
(PID.TID 0000.0001) %MON dynstat_sss_del2             =   8.3273814369551E-02
(PID.TID 0000.0001) %MON extforcing_qnet_max          =   4.3008355712891E+02
(PID.TID 0000.0001) %MON extforcing_qnet_min          =  -1.8515833485921E+02
(PID.TID 0000.0001) %MON extforcing_qnet_mean         =  -1.6650157515098E+01
(PID.TID 0000.0001) %MON extforcing_qnet_sd           =   1.1200321531664E+02
(PID.TID 0000.0001) %MON extforcing_qnet_del2         =   9.4991829492293E+00
(PID.TID 0000.0001) %MON extforcing_qsw_max           =   0.0000000000000E+00
(PID.TID 0000.0001) %MON extforcing_qsw_min           =   0.0000000000000E+00
(PID.TID 0000.0001) %MON extforcing_qsw_mean          =   0.0000000000000E+00
(PID.TID 0000.0001) %MON extforcing_qsw_sd            =   0.0000000000000E+00
(PID.TID 0000.0001) %MON extforcing_qsw_del2          =   0.0000000000000E+00
(PID.TID 0000.0001) %MON extforcing_empmr_max         =   0.0000000000000E+00
(PID.TID 0000.0001) %MON extforcing_empmr_min         =   0.0000000000000E+00
(PID.TID 0000.0001) %MON extforcing_empmr_mean        =   0.0000000000000E+00
(PID.TID 0000.0001) %MON extforcing_empmr_sd          =   0.0000000000000E+00
(PID.TID 0000.0001) %MON extforcing_empmr_del2        =   0.0000000000000E+00
(PID.TID 0000.0001) %MON extforcing_fu_max            =   2.7145579755306E-01
(PID.TID 0000.0001) %MON extforcing_fu_min            =  -1.6193294972181E-01
(PID.TID 0000.0001) %MON extforcing_fu_mean           =   1.6086356183975E-02
(PID.TID 0000.0001) %MON extforcing_fu_sd             =   9.0157845327697E-02
(PID.TID 0000.0001) %MON extforcing_fu_del2           =   7.3650677971764E-03
(PID.TID 0000.0001) %MON extforcing_fv_max            =   2.1244236379862E-01
(PID.TID 0000.0001) %MON extforcing_fv_min            =  -1.8456813246012E-01
(PID.TID 0000.0001) %MON extforcing_fv_mean           =  -6.0702855349739E-03
(PID.TID 0000.0001) %MON extforcing_fv_sd             =   4.5662631572644E-02
(PID.TID 0000.0001) %MON extforcing_fv_del2           =   4.3628461453053E-03
(PID.TID 0000.0001) %MON advcfl_uvel_max              =   1.7826084480994E-02
(PID.TID 0000.0001) %MON advcfl_vvel_max              =   8.4045041658037E-03
(PID.TID 0000.0001) %MON advcfl_wvel_max              =   2.0591551116016E-01
(PID.TID 0000.0001) %MON advcfl_W_hf_max              =   2.1196274218981E-01
(PID.TID 0000.0001) %MON pe_b_mean                    =   8.5139562587333E-05
(PID.TID 0000.0001) %MON ke_max                       =   5.0975561226346E-03
(PID.TID 0000.0001) %MON ke_mean                      =   1.9085695254354E-04
(PID.TID 0000.0001) %MON ke_vol                       =   1.3226782436723E+18
(PID.TID 0000.0001) %MON vort_r_min                   =  -3.3885962124025E-07
(PID.TID 0000.0001) %MON vort_r_max                   =   4.6640739229537E-07
(PID.TID 0000.0001) %MON vort_a_mean                  =  -2.5205769519128E-05
(PID.TID 0000.0001) %MON vort_a_sd                    =   7.3401940787001E-05
(PID.TID 0000.0001) %MON vort_p_mean                  =  -3.1758669715834E-05
(PID.TID 0000.0001) %MON vort_p_sd                    =   1.3126248828651E-04
(PID.TID 0000.0001) %MON surfExpan_theta_mean         =   1.6713769777723E-04
(PID.TID 0000.0001) %MON surfExpan_salt_mean          =   1.3161848788682E-05
(PID.TID 0000.0001) // =======================================================
(PID.TID 0000.0001) // End MONITOR dynamic field statistics
(PID.TID 0000.0001) // =======================================================
time,SST,SSS,fu,fv,Q,E-P,i0,i1,a,b =   3.8880E+05  3.2473E-01  3.4469E+01 -3.9040E-02 -6.1804E-02  2.6530E+02  0.0000E+00    12     1  6.5000E-01  3.5000E-01
time,fu0,fu1,fu =   3.8880E+05 -4.5368E-02 -3.5633E-02 -3.9040E-02  6.500000000000000E-01  3.500000000000000E-01
 cg2d: Sum(rhs),rhsMax =  -3.57795390537596E-13  8.31512136376637E+00
(PID.TID 0000.0001)                    cg2d_init_res =    1.23977446079108E+00
(PID.TID 0000.0001)                       cg2d_iters =    25
(PID.TID 0000.0001)                         cg2d_res =    8.86982808022693E-14
(PID.TID 0000.0001) // =======================================================
(PID.TID 0000.0001) // Begin MONITOR dynamic field statistics
(PID.TID 0000.0001) // =======================================================
(PID.TID 0000.0001) %MON time_tsnumber                =                    10
(PID.TID 0000.0001) %MON time_secondsf                =   4.3200000000000E+05
(PID.TID 0000.0001) %MON dynstat_eta_max              =   9.6751398357437E-01
(PID.TID 0000.0001) %MON dynstat_eta_min              =  -8.8670275902035E-01
(PID.TID 0000.0001) %MON dynstat_eta_mean             =   2.6081075343194E-16
(PID.TID 0000.0001) %MON dynstat_eta_sd               =   2.8064982391391E-01
(PID.TID 0000.0001) %MON dynstat_eta_del2             =   2.5160181204885E-02
(PID.TID 0000.0001) %MON dynstat_uvel_max             =   1.0901155322191E-01
(PID.TID 0000.0001) %MON dynstat_uvel_min             =  -1.2267213624700E-01
(PID.TID 0000.0001) %MON dynstat_uvel_mean            =  -7.9108719657562E-03
(PID.TID 0000.0001) %MON dynstat_uvel_sd              =   1.1740625940764E-02
(PID.TID 0000.0001) %MON dynstat_uvel_del2            =   2.9569620759927E-03
(PID.TID 0000.0001) %MON dynstat_vvel_max             =   9.6269215752065E-02
(PID.TID 0000.0001) %MON dynstat_vvel_min             =  -9.3664853447824E-02
(PID.TID 0000.0001) %MON dynstat_vvel_mean            =   5.1335125522452E-03
(PID.TID 0000.0001) %MON dynstat_vvel_sd              =   1.5522418623486E-02
(PID.TID 0000.0001) %MON dynstat_vvel_del2            =   3.2459312576942E-03
(PID.TID 0000.0001) %MON dynstat_wvel_max             =   2.8287000174451E-04
(PID.TID 0000.0001) %MON dynstat_wvel_min             =  -3.1979080840075E-04
(PID.TID 0000.0001) %MON dynstat_wvel_mean            =   3.0964845892420E-24
(PID.TID 0000.0001) %MON dynstat_wvel_sd              =   3.6575442599815E-05
(PID.TID 0000.0001) %MON dynstat_wvel_del2            =   1.2527043414882E-05
(PID.TID 0000.0001) %MON dynstat_theta_max            =   2.9630623847862E+01
(PID.TID 0000.0001) %MON dynstat_theta_min            =  -2.0926240855428E+00
(PID.TID 0000.0001) %MON dynstat_theta_mean           =   3.6053693689165E+00
(PID.TID 0000.0001) %MON dynstat_theta_sd             =   4.3861597557812E+00
(PID.TID 0000.0001) %MON dynstat_theta_del2           =   1.4386040924873E-01
(PID.TID 0000.0001) %MON dynstat_salt_max             =   3.7434199175466E+01
(PID.TID 0000.0001) %MON dynstat_salt_min             =   2.9778561339128E+01
(PID.TID 0000.0001) %MON dynstat_salt_mean            =   3.4716817073367E+01
(PID.TID 0000.0001) %MON dynstat_salt_sd              =   2.9617323037186E-01
(PID.TID 0000.0001) %MON dynstat_salt_del2            =   2.6156728081173E-02
(PID.TID 0000.0001) %MON dynstat_sst_max              =   2.9630623847862E+01
(PID.TID 0000.0001) %MON dynstat_sst_min              =  -1.9016124407361E+00
(PID.TID 0000.0001) %MON dynstat_sst_mean             =   1.8484509754289E+01
(PID.TID 0000.0001) %MON dynstat_sst_sd               =   9.0596865857947E+00
(PID.TID 0000.0001) %MON dynstat_sst_del2             =   2.7254073255584E-01
(PID.TID 0000.0001) %MON dynstat_sss_max              =   3.7434199175466E+01
(PID.TID 0000.0001) %MON dynstat_sss_min              =   2.9778561339128E+01
(PID.TID 0000.0001) %MON dynstat_sss_mean             =   3.4847114640512E+01
(PID.TID 0000.0001) %MON dynstat_sss_sd               =   9.6679521828161E-01
(PID.TID 0000.0001) %MON dynstat_sss_del2             =   8.3222291731562E-02
(PID.TID 0000.0001) %MON extforcing_qnet_max          =   4.3060765075684E+02
(PID.TID 0000.0001) %MON extforcing_qnet_min          =  -1.8492475357056E+02
(PID.TID 0000.0001) %MON extforcing_qnet_mean         =  -1.6643901537186E+01
(PID.TID 0000.0001) %MON extforcing_qnet_sd           =   1.1189943189448E+02
(PID.TID 0000.0001) %MON extforcing_qnet_del2         =   9.5020530008678E+00
(PID.TID 0000.0001) %MON extforcing_qsw_max           =   0.0000000000000E+00
(PID.TID 0000.0001) %MON extforcing_qsw_min           =   0.0000000000000E+00
(PID.TID 0000.0001) %MON extforcing_qsw_mean          =   0.0000000000000E+00
(PID.TID 0000.0001) %MON extforcing_qsw_sd            =   0.0000000000000E+00
(PID.TID 0000.0001) %MON extforcing_qsw_del2          =   0.0000000000000E+00
(PID.TID 0000.0001) %MON extforcing_empmr_max         =   0.0000000000000E+00
(PID.TID 0000.0001) %MON extforcing_empmr_min         =   0.0000000000000E+00
(PID.TID 0000.0001) %MON extforcing_empmr_mean        =   0.0000000000000E+00
(PID.TID 0000.0001) %MON extforcing_empmr_sd          =   0.0000000000000E+00
(PID.TID 0000.0001) %MON extforcing_empmr_del2        =   0.0000000000000E+00
(PID.TID 0000.0001) %MON extforcing_fu_max            =   2.7102652341127E-01
(PID.TID 0000.0001) %MON extforcing_fu_min            =  -1.6233965978026E-01
(PID.TID 0000.0001) %MON extforcing_fu_mean           =   1.6082509773456E-02
(PID.TID 0000.0001) %MON extforcing_fu_sd             =   9.0170650860979E-02
(PID.TID 0000.0001) %MON extforcing_fu_del2           =   7.3674509117048E-03
(PID.TID 0000.0001) %MON extforcing_fv_max            =   2.1338231638074E-01
(PID.TID 0000.0001) %MON extforcing_fv_min            =  -1.8427580371499E-01
(PID.TID 0000.0001) %MON extforcing_fv_mean           =  -6.0334042715435E-03
(PID.TID 0000.0001) %MON extforcing_fv_sd             =   4.5742743708708E-02
(PID.TID 0000.0001) %MON extforcing_fv_del2           =   4.3720937186898E-03
(PID.TID 0000.0001) %MON advcfl_uvel_max              =   1.6317142787631E-02
(PID.TID 0000.0001) %MON advcfl_vvel_max              =   9.3517823240155E-03
(PID.TID 0000.0001) %MON advcfl_wvel_max              =   2.0148808232283E-01
(PID.TID 0000.0001) %MON advcfl_W_hf_max              =   2.0347416989071E-01
(PID.TID 0000.0001) %MON pe_b_mean                    =   1.0078844581359E-04
(PID.TID 0000.0001) %MON ke_max                       =   6.1348325558691E-03
(PID.TID 0000.0001) %MON ke_mean                      =   2.1105772803989E-04
(PID.TID 0000.0001) %MON ke_vol                       =   1.3226782436723E+18
(PID.TID 0000.0001) %MON vort_r_min                   =  -3.4555271913251E-07
(PID.TID 0000.0001) %MON vort_r_max                   =   5.2623143867605E-07
(PID.TID 0000.0001) %MON vort_a_mean                  =  -2.5205769606129E-05
(PID.TID 0000.0001) %MON vort_a_sd                    =   7.3401778686435E-05
(PID.TID 0000.0001) %MON vort_p_mean                  =  -3.1758669825454E-05
(PID.TID 0000.0001) %MON vort_p_sd                    =   1.3126188512000E-04
(PID.TID 0000.0001) %MON surfExpan_theta_mean         =   1.6113254063338E-04
(PID.TID 0000.0001) %MON surfExpan_salt_mean          =   1.2383328377638E-05
(PID.TID 0000.0001) // =======================================================
(PID.TID 0000.0001) // End MONITOR dynamic field statistics
(PID.TID 0000.0001) // =======================================================
time,SST,SSS,fu,fv,Q,E-P,i0,i1,a,b =   4.3200E+05  3.5491E-01  3.4481E+01 -3.8878E-02 -6.1587E-02  2.6532E+02  0.0000E+00    12     1  6.6667E-01  3.3333E-01
time,fu0,fu1,fu =   4.3200E+05 -4.5368E-02 -3.5633E-02 -3.8878E-02  6.666666666666666E-01  3.333333333333334E-01
 cg2d: Sum(rhs),rhsMax =  -5.20239233636755E-13  8.25257067290290E+00
(PID.TID 0000.0001)                    cg2d_init_res =    1.20278344155750E+00
(PID.TID 0000.0001)                       cg2d_iters =    25
(PID.TID 0000.0001)                         cg2d_res =    8.44304658993665E-14
(PID.TID 0000.0001) // =======================================================
(PID.TID 0000.0001) // Begin MONITOR dynamic field statistics
(PID.TID 0000.0001) // =======================================================
(PID.TID 0000.0001) %MON time_tsnumber                =                    11
(PID.TID 0000.0001) %MON time_secondsf                =   4.7520000000000E+05
(PID.TID 0000.0001) %MON dynstat_eta_max              =   9.6541816425738E-01
(PID.TID 0000.0001) %MON dynstat_eta_min              =  -9.1736799570522E-01
(PID.TID 0000.0001) %MON dynstat_eta_mean             =   4.1085799283592E-16
(PID.TID 0000.0001) %MON dynstat_eta_sd               =   3.0132753237602E-01
(PID.TID 0000.0001) %MON dynstat_eta_del2             =   2.4459028410045E-02
(PID.TID 0000.0001) %MON dynstat_uvel_max             =   1.1769465712490E-01
(PID.TID 0000.0001) %MON dynstat_uvel_min             =  -1.3089968360151E-01
(PID.TID 0000.0001) %MON dynstat_uvel_mean            =  -8.6657233850444E-03
(PID.TID 0000.0001) %MON dynstat_uvel_sd              =   1.2912406938324E-02
(PID.TID 0000.0001) %MON dynstat_uvel_del2            =   3.1118880455672E-03
(PID.TID 0000.0001) %MON dynstat_vvel_max             =   1.0387511696069E-01
(PID.TID 0000.0001) %MON dynstat_vvel_min             =  -9.9310040289934E-02
(PID.TID 0000.0001) %MON dynstat_vvel_mean            =   5.0131128134670E-03
(PID.TID 0000.0001) %MON dynstat_vvel_sd              =   1.5473141180314E-02
(PID.TID 0000.0001) %MON dynstat_vvel_del2            =   3.3526495829929E-03
(PID.TID 0000.0001) %MON dynstat_wvel_max             =   2.7561731751479E-04
(PID.TID 0000.0001) %MON dynstat_wvel_min             =  -3.4113877697925E-04
(PID.TID 0000.0001) %MON dynstat_wvel_mean            =  -7.7026774426611E-22
(PID.TID 0000.0001) %MON dynstat_wvel_sd              =   3.6580992616629E-05
(PID.TID 0000.0001) %MON dynstat_wvel_del2            =   1.2596906048838E-05
(PID.TID 0000.0001) %MON dynstat_theta_max            =   2.9588562763070E+01
(PID.TID 0000.0001) %MON dynstat_theta_min            =  -2.1154882698575E+00
(PID.TID 0000.0001) %MON dynstat_theta_mean           =   3.6036310470924E+00
(PID.TID 0000.0001) %MON dynstat_theta_sd             =   4.3819021610436E+00
(PID.TID 0000.0001) %MON dynstat_theta_del2           =   1.4327138364033E-01
(PID.TID 0000.0001) %MON dynstat_salt_max             =   3.7431584631372E+01
(PID.TID 0000.0001) %MON dynstat_salt_min             =   2.9780371716712E+01
(PID.TID 0000.0001) %MON dynstat_salt_mean            =   3.4716682809904E+01
(PID.TID 0000.0001) %MON dynstat_salt_sd              =   2.9615486669851E-01
(PID.TID 0000.0001) %MON dynstat_salt_del2            =   2.6122903517100E-02
(PID.TID 0000.0001) %MON dynstat_sst_max              =   2.9588562763070E+01
(PID.TID 0000.0001) %MON dynstat_sst_min              =  -1.9020597436950E+00
(PID.TID 0000.0001) %MON dynstat_sst_mean             =   1.8483118684428E+01
(PID.TID 0000.0001) %MON dynstat_sst_sd               =   9.0438590035772E+00
(PID.TID 0000.0001) %MON dynstat_sst_del2             =   2.7303515094177E-01
(PID.TID 0000.0001) %MON dynstat_sss_max              =   3.7431584631372E+01
(PID.TID 0000.0001) %MON dynstat_sss_min              =   2.9780371716712E+01
(PID.TID 0000.0001) %MON dynstat_sss_mean             =   3.4846915704490E+01
(PID.TID 0000.0001) %MON dynstat_sss_sd               =   9.6723444581698E-01
(PID.TID 0000.0001) %MON dynstat_sss_del2             =   8.3168972556425E-02
(PID.TID 0000.0001) %MON extforcing_qnet_max          =   4.3113174438477E+02
(PID.TID 0000.0001) %MON extforcing_qnet_min          =  -1.8469117228190E+02
(PID.TID 0000.0001) %MON extforcing_qnet_mean         =  -1.6637645559275E+01
(PID.TID 0000.0001) %MON extforcing_qnet_sd           =   1.1179629855085E+02
(PID.TID 0000.0001) %MON extforcing_qnet_del2         =   9.5054858461914E+00
(PID.TID 0000.0001) %MON extforcing_qsw_max           =   0.0000000000000E+00
(PID.TID 0000.0001) %MON extforcing_qsw_min           =   0.0000000000000E+00
(PID.TID 0000.0001) %MON extforcing_qsw_mean          =   0.0000000000000E+00
(PID.TID 0000.0001) %MON extforcing_qsw_sd            =   0.0000000000000E+00
(PID.TID 0000.0001) %MON extforcing_qsw_del2          =   0.0000000000000E+00
(PID.TID 0000.0001) %MON extforcing_empmr_max         =   0.0000000000000E+00
(PID.TID 0000.0001) %MON extforcing_empmr_min         =   0.0000000000000E+00
(PID.TID 0000.0001) %MON extforcing_empmr_mean        =   0.0000000000000E+00
(PID.TID 0000.0001) %MON extforcing_empmr_sd          =   0.0000000000000E+00
(PID.TID 0000.0001) %MON extforcing_empmr_del2        =   0.0000000000000E+00
(PID.TID 0000.0001) %MON extforcing_fu_max            =   2.7059724926949E-01
(PID.TID 0000.0001) %MON extforcing_fu_min            =  -1.6274636983871E-01
(PID.TID 0000.0001) %MON extforcing_fu_mean           =   1.6078663362938E-02
(PID.TID 0000.0001) %MON extforcing_fu_sd             =   9.0186169351879E-02
(PID.TID 0000.0001) %MON extforcing_fu_del2           =   7.3711458055900E-03
(PID.TID 0000.0001) %MON extforcing_fv_max            =   2.1432226896286E-01
(PID.TID 0000.0001) %MON extforcing_fv_min            =  -1.8398347496986E-01
(PID.TID 0000.0001) %MON extforcing_fv_mean           =  -5.9965230081131E-03
(PID.TID 0000.0001) %MON extforcing_fv_sd             =   4.5826577347902E-02
(PID.TID 0000.0001) %MON extforcing_fv_del2           =   4.3818909283374E-03
(PID.TID 0000.0001) %MON advcfl_uvel_max              =   1.7566992220821E-02
(PID.TID 0000.0001) %MON advcfl_vvel_max              =   1.0090634634438E-02
(PID.TID 0000.0001) %MON advcfl_wvel_max              =   1.9676590497855E-01
(PID.TID 0000.0001) %MON advcfl_W_hf_max              =   1.8963168056973E-01
(PID.TID 0000.0001) %MON pe_b_mean                    =   1.1618734569586E-04
(PID.TID 0000.0001) %MON ke_max                       =   7.2092499098701E-03
(PID.TID 0000.0001) %MON ke_mean                      =   2.2863258648529E-04
(PID.TID 0000.0001) %MON ke_vol                       =   1.3226782436723E+18
(PID.TID 0000.0001) %MON vort_r_min                   =  -3.4930922198473E-07
(PID.TID 0000.0001) %MON vort_r_max                   =   5.7316845623004E-07
(PID.TID 0000.0001) %MON vort_a_mean                  =  -2.5205769682992E-05
(PID.TID 0000.0001) %MON vort_a_sd                    =   7.3401632789930E-05
(PID.TID 0000.0001) %MON vort_p_mean                  =  -3.1758669922300E-05
(PID.TID 0000.0001) %MON vort_p_sd                    =   1.3126131594370E-04
(PID.TID 0000.0001) %MON surfExpan_theta_mean         =   1.5242508308488E-04
(PID.TID 0000.0001) %MON surfExpan_salt_mean          =   1.1355211344402E-05
(PID.TID 0000.0001) // =======================================================
(PID.TID 0000.0001) // End MONITOR dynamic field statistics
(PID.TID 0000.0001) // =======================================================
time,SST,SSS,fu,fv,Q,E-P,i0,i1,a,b =   4.7520E+05  3.8508E-01  3.4492E+01 -3.8716E-02 -6.1371E-02  2.6534E+02  0.0000E+00    12     1  6.8333E-01  3.1667E-01
time,fu0,fu1,fu =   4.7520E+05 -4.5368E-02 -3.5633E-02 -3.8716E-02  6.833333333333333E-01  3.166666666666667E-01
 cg2d: Sum(rhs),rhsMax =  -1.06002012723039E-12  8.09293762885826E+00
(PID.TID 0000.0001)                    cg2d_init_res =    1.18131232497056E+00
(PID.TID 0000.0001)                       cg2d_iters =    25
(PID.TID 0000.0001)                         cg2d_res =    8.15135621755016E-14
(PID.TID 0000.0001) // =======================================================
(PID.TID 0000.0001) // Begin MONITOR dynamic field statistics
(PID.TID 0000.0001) // =======================================================
(PID.TID 0000.0001) %MON time_tsnumber                =                    12
(PID.TID 0000.0001) %MON time_secondsf                =   5.1840000000000E+05
(PID.TID 0000.0001) %MON dynstat_eta_max              =   9.9559546635530E-01
(PID.TID 0000.0001) %MON dynstat_eta_min              =  -1.0106246507739E+00
(PID.TID 0000.0001) %MON dynstat_eta_mean             =   5.1492298518352E-16
(PID.TID 0000.0001) %MON dynstat_eta_sd               =   3.1973749814448E-01
(PID.TID 0000.0001) %MON dynstat_eta_del2             =   2.3709510562833E-02
(PID.TID 0000.0001) %MON dynstat_uvel_max             =   1.2571746839132E-01
(PID.TID 0000.0001) %MON dynstat_uvel_min             =  -1.3462242584723E-01
(PID.TID 0000.0001) %MON dynstat_uvel_mean            =  -9.3043366027310E-03
(PID.TID 0000.0001) %MON dynstat_uvel_sd              =   1.3989258038944E-02
(PID.TID 0000.0001) %MON dynstat_uvel_del2            =   3.2420782724234E-03
(PID.TID 0000.0001) %MON dynstat_vvel_max             =   1.0891658057006E-01
(PID.TID 0000.0001) %MON dynstat_vvel_min             =  -1.0323143761774E-01
(PID.TID 0000.0001) %MON dynstat_vvel_mean            =   4.7992754752947E-03
(PID.TID 0000.0001) %MON dynstat_vvel_sd              =   1.5288905928711E-02
(PID.TID 0000.0001) %MON dynstat_vvel_del2            =   3.4253072059178E-03
(PID.TID 0000.0001) %MON dynstat_wvel_max             =   2.6648879994801E-04
(PID.TID 0000.0001) %MON dynstat_wvel_min             =  -3.5708048969946E-04
(PID.TID 0000.0001) %MON dynstat_wvel_mean            =  -8.5754273583697E-22
(PID.TID 0000.0001) %MON dynstat_wvel_sd              =   3.6197950904989E-05
(PID.TID 0000.0001) %MON dynstat_wvel_del2            =   1.2486803064845E-05
(PID.TID 0000.0001) %MON dynstat_theta_max            =   2.9550623886904E+01
(PID.TID 0000.0001) %MON dynstat_theta_min            =  -2.1318612566663E+00
(PID.TID 0000.0001) %MON dynstat_theta_mean           =   3.6020096852548E+00
(PID.TID 0000.0001) %MON dynstat_theta_sd             =   4.3777339168623E+00
(PID.TID 0000.0001) %MON dynstat_theta_del2           =   1.4271161152627E-01
(PID.TID 0000.0001) %MON dynstat_salt_max             =   3.7429387152177E+01
(PID.TID 0000.0001) %MON dynstat_salt_min             =   2.9781728901294E+01
(PID.TID 0000.0001) %MON dynstat_salt_mean            =   3.4716561831117E+01
(PID.TID 0000.0001) %MON dynstat_salt_sd              =   2.9613115522867E-01
(PID.TID 0000.0001) %MON dynstat_salt_del2            =   2.6095177986525E-02
(PID.TID 0000.0001) %MON dynstat_sst_max              =   2.9550623886904E+01
(PID.TID 0000.0001) %MON dynstat_sst_min              =  -1.9025188874296E+00
(PID.TID 0000.0001) %MON dynstat_sst_mean             =   1.8482244539696E+01
(PID.TID 0000.0001) %MON dynstat_sst_sd               =   9.0283055901441E+00
(PID.TID 0000.0001) %MON dynstat_sst_del2             =   2.7333731820563E-01
(PID.TID 0000.0001) %MON dynstat_sss_max              =   3.7429387152177E+01
(PID.TID 0000.0001) %MON dynstat_sss_min              =   2.9781728901294E+01
(PID.TID 0000.0001) %MON dynstat_sss_mean             =   3.4846871635467E+01
(PID.TID 0000.0001) %MON dynstat_sss_sd               =   9.6762388561916E-01
(PID.TID 0000.0001) %MON dynstat_sss_del2             =   8.3084879963392E-02
(PID.TID 0000.0001) %MON extforcing_qnet_max          =   4.3165583801270E+02
(PID.TID 0000.0001) %MON extforcing_qnet_min          =  -1.8445759099325E+02
(PID.TID 0000.0001) %MON extforcing_qnet_mean         =  -1.6631389581363E+01
(PID.TID 0000.0001) %MON extforcing_qnet_sd           =   1.1169381708650E+02
(PID.TID 0000.0001) %MON extforcing_qnet_del2         =   9.5091443193612E+00
(PID.TID 0000.0001) %MON extforcing_qsw_max           =   0.0000000000000E+00
(PID.TID 0000.0001) %MON extforcing_qsw_min           =   0.0000000000000E+00
(PID.TID 0000.0001) %MON extforcing_qsw_mean          =   0.0000000000000E+00
(PID.TID 0000.0001) %MON extforcing_qsw_sd            =   0.0000000000000E+00
(PID.TID 0000.0001) %MON extforcing_qsw_del2          =   0.0000000000000E+00
(PID.TID 0000.0001) %MON extforcing_empmr_max         =   0.0000000000000E+00
(PID.TID 0000.0001) %MON extforcing_empmr_min         =   0.0000000000000E+00
(PID.TID 0000.0001) %MON extforcing_empmr_mean        =   0.0000000000000E+00
(PID.TID 0000.0001) %MON extforcing_empmr_sd          =   0.0000000000000E+00
(PID.TID 0000.0001) %MON extforcing_empmr_del2        =   0.0000000000000E+00
(PID.TID 0000.0001) %MON extforcing_fu_max            =   2.7016797512770E-01
(PID.TID 0000.0001) %MON extforcing_fu_min            =  -1.6315307989717E-01
(PID.TID 0000.0001) %MON extforcing_fu_mean           =   1.6074816952419E-02
(PID.TID 0000.0001) %MON extforcing_fu_sd             =   9.0204399400210E-02
(PID.TID 0000.0001) %MON extforcing_fu_del2           =   7.3757470571508E-03
(PID.TID 0000.0001) %MON extforcing_fv_max            =   2.1526222154498E-01
(PID.TID 0000.0001) %MON extforcing_fv_min            =  -1.8369114622474E-01
(PID.TID 0000.0001) %MON extforcing_fv_mean           =  -5.9596417446827E-03
(PID.TID 0000.0001) %MON extforcing_fv_sd             =   4.5914112105179E-02
(PID.TID 0000.0001) %MON extforcing_fv_del2           =   4.3935876268221E-03
(PID.TID 0000.0001) %MON advcfl_uvel_max              =   2.1075171778559E-02
(PID.TID 0000.0001) %MON advcfl_vvel_max              =   1.0580372396412E-02
(PID.TID 0000.0001) %MON advcfl_wvel_max              =   2.0122873901350E-01
(PID.TID 0000.0001) %MON advcfl_W_hf_max              =   1.7557550680129E-01
(PID.TID 0000.0001) %MON pe_b_mean                    =   1.3081825296787E-04
(PID.TID 0000.0001) %MON ke_max                       =   8.3008753234854E-03
(PID.TID 0000.0001) %MON ke_mean                      =   2.4352099740467E-04
(PID.TID 0000.0001) %MON ke_vol                       =   1.3226782436723E+18
(PID.TID 0000.0001) %MON vort_r_min                   =  -3.3976043571229E-07
(PID.TID 0000.0001) %MON vort_r_max                   =   6.0494875884030E-07
(PID.TID 0000.0001) %MON vort_a_mean                  =  -2.5205769740083E-05
(PID.TID 0000.0001) %MON vort_a_sd                    =   7.3401507071771E-05
(PID.TID 0000.0001) %MON vort_p_mean                  =  -3.1758669994233E-05
(PID.TID 0000.0001) %MON vort_p_sd                    =   1.3126080552507E-04
(PID.TID 0000.0001) %MON surfExpan_theta_mean         =   1.4159004267727E-04
(PID.TID 0000.0001) %MON surfExpan_salt_mean          =   1.0143324827925E-05
(PID.TID 0000.0001) // =======================================================
(PID.TID 0000.0001) // End MONITOR dynamic field statistics
(PID.TID 0000.0001) // =======================================================
time,SST,SSS,fu,fv,Q,E-P,i0,i1,a,b =   5.1840E+05  4.1526E-01  3.4504E+01 -3.8553E-02 -6.1154E-02  2.6537E+02  0.0000E+00    12     1  7.0000E-01  3.0000E-01
time,fu0,fu1,fu =   5.1840E+05 -4.5368E-02 -3.5633E-02 -3.8553E-02  7.000000000000000E-01  3.000000000000000E-01
 cg2d: Sum(rhs),rhsMax =  -9.28249664633451E-13  8.55637530605072E+00
(PID.TID 0000.0001)                    cg2d_init_res =    1.07787518382767E+00
(PID.TID 0000.0001)                       cg2d_iters =    25
(PID.TID 0000.0001)                         cg2d_res =    7.21622688194409E-14
(PID.TID 0000.0001) // =======================================================
(PID.TID 0000.0001) // Begin MONITOR dynamic field statistics
(PID.TID 0000.0001) // =======================================================
(PID.TID 0000.0001) %MON time_tsnumber                =                    13
(PID.TID 0000.0001) %MON time_secondsf                =   5.6160000000000E+05
(PID.TID 0000.0001) %MON dynstat_eta_max              =   1.0471189972601E+00
(PID.TID 0000.0001) %MON dynstat_eta_min              =  -1.0888047728811E+00
(PID.TID 0000.0001) %MON dynstat_eta_mean             =   5.5248211097192E-16
(PID.TID 0000.0001) %MON dynstat_eta_sd               =   3.3571301622723E-01
(PID.TID 0000.0001) %MON dynstat_eta_del2             =   2.2916099719352E-02
(PID.TID 0000.0001) %MON dynstat_uvel_max             =   1.3304269069025E-01
(PID.TID 0000.0001) %MON dynstat_uvel_min             =  -1.3403543959510E-01
(PID.TID 0000.0001) %MON dynstat_uvel_mean            =  -9.8100821151428E-03
(PID.TID 0000.0001) %MON dynstat_uvel_sd              =   1.4957583452700E-02
(PID.TID 0000.0001) %MON dynstat_uvel_del2            =   3.3504911378152E-03
(PID.TID 0000.0001) %MON dynstat_vvel_max             =   1.1120131909270E-01
(PID.TID 0000.0001) %MON dynstat_vvel_min             =  -1.0523834668784E-01
(PID.TID 0000.0001) %MON dynstat_vvel_mean            =   4.5116795313657E-03
(PID.TID 0000.0001) %MON dynstat_vvel_sd              =   1.5020011874350E-02
(PID.TID 0000.0001) %MON dynstat_vvel_del2            =   3.4697247261038E-03
(PID.TID 0000.0001) %MON dynstat_wvel_max             =   2.5917502829844E-04
(PID.TID 0000.0001) %MON dynstat_wvel_min             =  -3.6631500628206E-04
(PID.TID 0000.0001) %MON dynstat_wvel_mean            =  -5.0958961569770E-22
(PID.TID 0000.0001) %MON dynstat_wvel_sd              =   3.5497962178087E-05
(PID.TID 0000.0001) %MON dynstat_wvel_del2            =   1.2224219105559E-05
(PID.TID 0000.0001) %MON dynstat_theta_max            =   2.9558695464181E+01
(PID.TID 0000.0001) %MON dynstat_theta_min            =  -2.1411111686063E+00
(PID.TID 0000.0001) %MON dynstat_theta_mean           =   3.6005253014645E+00
(PID.TID 0000.0001) %MON dynstat_theta_sd             =   4.3737031248373E+00
(PID.TID 0000.0001) %MON dynstat_theta_del2           =   1.4220659247011E-01
(PID.TID 0000.0001) %MON dynstat_salt_max             =   3.7427745033662E+01
(PID.TID 0000.0001) %MON dynstat_salt_min             =   2.9782632836412E+01
(PID.TID 0000.0001) %MON dynstat_salt_mean            =   3.4716455755071E+01
(PID.TID 0000.0001) %MON dynstat_salt_sd              =   2.9610251903306E-01
(PID.TID 0000.0001) %MON dynstat_salt_del2            =   2.6073031586165E-02
(PID.TID 0000.0001) %MON dynstat_sst_max              =   2.9558695464181E+01
(PID.TID 0000.0001) %MON dynstat_sst_min              =  -1.9030367378852E+00
(PID.TID 0000.0001) %MON dynstat_sst_mean             =   1.8481759324286E+01
(PID.TID 0000.0001) %MON dynstat_sst_sd               =   9.0131626195676E+00
(PID.TID 0000.0001) %MON dynstat_sst_del2             =   2.7360802678793E-01
(PID.TID 0000.0001) %MON dynstat_sss_max              =   3.7427745033662E+01
(PID.TID 0000.0001) %MON dynstat_sss_min              =   2.9782632836412E+01
(PID.TID 0000.0001) %MON dynstat_sss_mean             =   3.4846936274175E+01
(PID.TID 0000.0001) %MON dynstat_sss_sd               =   9.6792556624035E-01
(PID.TID 0000.0001) %MON dynstat_sss_del2             =   8.2989869787217E-02
(PID.TID 0000.0001) %MON extforcing_qnet_max          =   4.3217993164062E+02
(PID.TID 0000.0001) %MON extforcing_qnet_min          =  -1.8422400970459E+02
(PID.TID 0000.0001) %MON extforcing_qnet_mean         =  -1.6625133603451E+01
(PID.TID 0000.0001) %MON extforcing_qnet_sd           =   1.1159198929743E+02
(PID.TID 0000.0001) %MON extforcing_qnet_del2         =   9.5132681531629E+00
(PID.TID 0000.0001) %MON extforcing_qsw_max           =   0.0000000000000E+00
(PID.TID 0000.0001) %MON extforcing_qsw_min           =   0.0000000000000E+00
(PID.TID 0000.0001) %MON extforcing_qsw_mean          =   0.0000000000000E+00
(PID.TID 0000.0001) %MON extforcing_qsw_sd            =   0.0000000000000E+00
(PID.TID 0000.0001) %MON extforcing_qsw_del2          =   0.0000000000000E+00
(PID.TID 0000.0001) %MON extforcing_empmr_max         =   0.0000000000000E+00
(PID.TID 0000.0001) %MON extforcing_empmr_min         =   0.0000000000000E+00
(PID.TID 0000.0001) %MON extforcing_empmr_mean        =   0.0000000000000E+00
(PID.TID 0000.0001) %MON extforcing_empmr_sd          =   0.0000000000000E+00
(PID.TID 0000.0001) %MON extforcing_empmr_del2        =   0.0000000000000E+00
(PID.TID 0000.0001) %MON extforcing_fu_max            =   2.6977391839027E-01
(PID.TID 0000.0001) %MON extforcing_fu_min            =  -1.6355978995562E-01
(PID.TID 0000.0001) %MON extforcing_fu_mean           =   1.6070970541901E-02
(PID.TID 0000.0001) %MON extforcing_fu_sd             =   9.0225339362360E-02
(PID.TID 0000.0001) %MON extforcing_fu_del2           =   7.3810684217543E-03
(PID.TID 0000.0001) %MON extforcing_fv_max            =   2.1620217412710E-01
(PID.TID 0000.0001) %MON extforcing_fv_min            =  -1.8339881747961E-01
(PID.TID 0000.0001) %MON extforcing_fv_mean           =  -5.9227604812523E-03
(PID.TID 0000.0001) %MON extforcing_fv_sd             =   4.6005326854092E-02
(PID.TID 0000.0001) %MON extforcing_fv_del2           =   4.4065694167007E-03
(PID.TID 0000.0001) %MON advcfl_uvel_max              =   2.4446869026544E-02
(PID.TID 0000.0001) %MON advcfl_vvel_max              =   1.0802316422486E-02
(PID.TID 0000.0001) %MON advcfl_wvel_max              =   2.0206527787962E-01
(PID.TID 0000.0001) %MON advcfl_W_hf_max              =   1.7744750156352E-01
(PID.TID 0000.0001) %MON pe_b_mean                    =   1.4421736628304E-04
(PID.TID 0000.0001) %MON ke_max                       =   9.3841569810270E-03
(PID.TID 0000.0001) %MON ke_mean                      =   2.5578629150031E-04
(PID.TID 0000.0001) %MON ke_vol                       =   1.3226782436723E+18
(PID.TID 0000.0001) %MON vort_r_min                   =  -3.3397763089651E-07
(PID.TID 0000.0001) %MON vort_r_max                   =   6.2017888009488E-07
(PID.TID 0000.0001) %MON vort_a_mean                  =  -2.5205769771521E-05
(PID.TID 0000.0001) %MON vort_a_sd                    =   7.3401404715208E-05
(PID.TID 0000.0001) %MON vort_p_mean                  =  -3.1758670033843E-05
(PID.TID 0000.0001) %MON vort_p_sd                    =   1.3126037660532E-04
(PID.TID 0000.0001) %MON surfExpan_theta_mean         =   1.2915990982739E-04
(PID.TID 0000.0001) %MON surfExpan_salt_mean          =   8.8105853796829E-06
(PID.TID 0000.0001) // =======================================================
(PID.TID 0000.0001) // End MONITOR dynamic field statistics
(PID.TID 0000.0001) // =======================================================
time,SST,SSS,fu,fv,Q,E-P,i0,i1,a,b =   5.6160E+05  4.4544E-01  3.4516E+01 -3.8391E-02 -6.0938E-02  2.6539E+02  0.0000E+00    12     1  7.1667E-01  2.8333E-01
time,fu0,fu1,fu =   5.6160E+05 -4.5368E-02 -3.5633E-02 -3.8391E-02  7.166666666666667E-01  2.833333333333333E-01
 cg2d: Sum(rhs),rhsMax =  -8.06875399828044E-13  9.25214403713225E+00
(PID.TID 0000.0001)                    cg2d_init_res =    9.64939498881783E-01
(PID.TID 0000.0001)                       cg2d_iters =    25
(PID.TID 0000.0001)                         cg2d_res =    6.15144956867450E-14
(PID.TID 0000.0001) // =======================================================
(PID.TID 0000.0001) // Begin MONITOR dynamic field statistics
(PID.TID 0000.0001) // =======================================================
(PID.TID 0000.0001) %MON time_tsnumber                =                    14
(PID.TID 0000.0001) %MON time_secondsf                =   6.0480000000000E+05
(PID.TID 0000.0001) %MON dynstat_eta_max              =   1.1180503938821E+00
(PID.TID 0000.0001) %MON dynstat_eta_min              =  -1.1570573251399E+00
(PID.TID 0000.0001) %MON dynstat_eta_mean             =   3.7641199040570E-16
(PID.TID 0000.0001) %MON dynstat_eta_sd               =   3.4917352663908E-01
(PID.TID 0000.0001) %MON dynstat_eta_del2             =   2.2237277306054E-02
(PID.TID 0000.0001) %MON dynstat_uvel_max             =   1.4013815004752E-01
(PID.TID 0000.0001) %MON dynstat_uvel_min             =  -1.2966547186867E-01
(PID.TID 0000.0001) %MON dynstat_uvel_mean            =  -1.0172085711400E-02
(PID.TID 0000.0001) %MON dynstat_uvel_sd              =   1.5809340807244E-02
(PID.TID 0000.0001) %MON dynstat_uvel_del2            =   3.4418183286336E-03
(PID.TID 0000.0001) %MON dynstat_vvel_max             =   1.2328404585969E-01
(PID.TID 0000.0001) %MON dynstat_vvel_min             =  -1.0518984676982E-01
(PID.TID 0000.0001) %MON dynstat_vvel_mean            =   4.1724122818241E-03
(PID.TID 0000.0001) %MON dynstat_vvel_sd              =   1.4713979093361E-02
(PID.TID 0000.0001) %MON dynstat_vvel_del2            =   3.4883281128636E-03
(PID.TID 0000.0001) %MON dynstat_wvel_max             =   2.5696919276164E-04
(PID.TID 0000.0001) %MON dynstat_wvel_min             =  -3.6852452027941E-04
(PID.TID 0000.0001) %MON dynstat_wvel_mean            =   5.8718522581182E-23
(PID.TID 0000.0001) %MON dynstat_wvel_sd              =   3.4559151547506E-05
(PID.TID 0000.0001) %MON dynstat_wvel_del2            =   1.1838356172633E-05
(PID.TID 0000.0001) %MON dynstat_theta_max            =   2.9559667123949E+01
(PID.TID 0000.0001) %MON dynstat_theta_min            =  -2.1443197729382E+00
(PID.TID 0000.0001) %MON dynstat_theta_mean           =   3.5991922393150E+00
(PID.TID 0000.0001) %MON dynstat_theta_sd             =   4.3698547705738E+00
(PID.TID 0000.0001) %MON dynstat_theta_del2           =   1.4178385298591E-01
(PID.TID 0000.0001) %MON dynstat_salt_max             =   3.7427012539368E+01
(PID.TID 0000.0001) %MON dynstat_salt_min             =   2.9783108830369E+01
(PID.TID 0000.0001) %MON dynstat_salt_mean            =   3.4716365515405E+01
(PID.TID 0000.0001) %MON dynstat_salt_sd              =   2.9606982020850E-01
(PID.TID 0000.0001) %MON dynstat_salt_del2            =   2.6058890560914E-02
(PID.TID 0000.0001) %MON dynstat_sst_max              =   2.9559667123949E+01
(PID.TID 0000.0001) %MON dynstat_sst_min              =  -1.9035689592502E+00
(PID.TID 0000.0001) %MON dynstat_sst_mean             =   1.8481828150545E+01
(PID.TID 0000.0001) %MON dynstat_sst_sd               =   8.9986581413776E+00
(PID.TID 0000.0001) %MON dynstat_sst_del2             =   2.7394676492598E-01
(PID.TID 0000.0001) %MON dynstat_sss_max              =   3.7427012539368E+01
(PID.TID 0000.0001) %MON dynstat_sss_min              =   2.9783108830369E+01
(PID.TID 0000.0001) %MON dynstat_sss_mean             =   3.4847177623074E+01
(PID.TID 0000.0001) %MON dynstat_sss_sd               =   9.6819467910919E-01
(PID.TID 0000.0001) %MON dynstat_sss_del2             =   8.2926914837415E-02
(PID.TID 0000.0001) %MON extforcing_qnet_max          =   4.3270402526855E+02
(PID.TID 0000.0001) %MON extforcing_qnet_min          =  -1.8399042841593E+02
(PID.TID 0000.0001) %MON extforcing_qnet_mean         =  -1.6618877625540E+01
(PID.TID 0000.0001) %MON extforcing_qnet_sd           =   1.1149081697469E+02
(PID.TID 0000.0001) %MON extforcing_qnet_del2         =   9.5179983091604E+00
(PID.TID 0000.0001) %MON extforcing_qsw_max           =   0.0000000000000E+00
(PID.TID 0000.0001) %MON extforcing_qsw_min           =   0.0000000000000E+00
(PID.TID 0000.0001) %MON extforcing_qsw_mean          =   0.0000000000000E+00
(PID.TID 0000.0001) %MON extforcing_qsw_sd            =   0.0000000000000E+00
(PID.TID 0000.0001) %MON extforcing_qsw_del2          =   0.0000000000000E+00
(PID.TID 0000.0001) %MON extforcing_empmr_max         =   0.0000000000000E+00
(PID.TID 0000.0001) %MON extforcing_empmr_min         =   0.0000000000000E+00
(PID.TID 0000.0001) %MON extforcing_empmr_mean        =   0.0000000000000E+00
(PID.TID 0000.0001) %MON extforcing_empmr_sd          =   0.0000000000000E+00
(PID.TID 0000.0001) %MON extforcing_empmr_del2        =   0.0000000000000E+00
(PID.TID 0000.0001) %MON extforcing_fu_max            =   2.6981456279755E-01
(PID.TID 0000.0001) %MON extforcing_fu_min            =  -1.6396650001407E-01
(PID.TID 0000.0001) %MON extforcing_fu_mean           =   1.6067124131382E-02
(PID.TID 0000.0001) %MON extforcing_fu_sd             =   9.0248987352032E-02
(PID.TID 0000.0001) %MON extforcing_fu_del2           =   7.3877407327441E-03
(PID.TID 0000.0001) %MON extforcing_fv_max            =   2.1714212670922E-01
(PID.TID 0000.0001) %MON extforcing_fv_min            =  -1.8310648873448E-01
(PID.TID 0000.0001) %MON extforcing_fv_mean           =  -5.8858792178219E-03
(PID.TID 0000.0001) %MON extforcing_fv_sd             =   4.6100199750737E-02
(PID.TID 0000.0001) %MON extforcing_fv_del2           =   4.4209158240490E-03
(PID.TID 0000.0001) %MON advcfl_uvel_max              =   2.6815121887131E-02
(PID.TID 0000.0001) %MON advcfl_vvel_max              =   1.1976056436079E-02
(PID.TID 0000.0001) %MON advcfl_wvel_max              =   1.8735610109499E-01
(PID.TID 0000.0001) %MON advcfl_W_hf_max              =   1.6540375424864E-01
(PID.TID 0000.0001) %MON pe_b_mean                    =   1.5601408872936E-04
(PID.TID 0000.0001) %MON ke_max                       =   1.0432062406712E-02
(PID.TID 0000.0001) %MON ke_mean                      =   2.6557050493917E-04
(PID.TID 0000.0001) %MON ke_vol                       =   1.3226782436723E+18
(PID.TID 0000.0001) %MON vort_r_min                   =  -3.4697579824482E-07
(PID.TID 0000.0001) %MON vort_r_max                   =   6.1832834456737E-07
(PID.TID 0000.0001) %MON vort_a_mean                  =  -2.5205769775600E-05
(PID.TID 0000.0001) %MON vort_a_sd                    =   7.3401327955637E-05
(PID.TID 0000.0001) %MON vort_p_mean                  =  -3.1758670038983E-05
(PID.TID 0000.0001) %MON vort_p_sd                    =   1.3126004715987E-04
(PID.TID 0000.0001) %MON surfExpan_theta_mean         =   1.1562683791341E-04
(PID.TID 0000.0001) %MON surfExpan_salt_mean          =   7.4164296009513E-06
(PID.TID 0000.0001) // =======================================================
(PID.TID 0000.0001) // End MONITOR dynamic field statistics
(PID.TID 0000.0001) // =======================================================
time,SST,SSS,fu,fv,Q,E-P,i0,i1,a,b =   6.0480E+05  4.7561E-01  3.4527E+01 -3.8229E-02 -6.0721E-02  2.6541E+02  0.0000E+00    12     1  7.3333E-01  2.6667E-01
time,fu0,fu1,fu =   6.0480E+05 -4.5368E-02 -3.5633E-02 -3.8229E-02  7.333333333333333E-01  2.666666666666667E-01
 cg2d: Sum(rhs),rhsMax =  -9.95779847468015E-13  9.75412758742916E+00
(PID.TID 0000.0001)                    cg2d_init_res =    8.90329625838539E-01
(PID.TID 0000.0001)                       cg2d_iters =    25
(PID.TID 0000.0001)                         cg2d_res =    5.29434858780126E-14
(PID.TID 0000.0001) // =======================================================
(PID.TID 0000.0001) // Begin MONITOR dynamic field statistics
(PID.TID 0000.0001) // =======================================================
(PID.TID 0000.0001) %MON time_tsnumber                =                    15
(PID.TID 0000.0001) %MON time_secondsf                =   6.4800000000000E+05
(PID.TID 0000.0001) %MON dynstat_eta_max              =   1.1768263831189E+00
(PID.TID 0000.0001) %MON dynstat_eta_min              =  -1.1922731869119E+00
(PID.TID 0000.0001) %MON dynstat_eta_mean             =   5.9824148669698E-16
(PID.TID 0000.0001) %MON dynstat_eta_sd               =   3.6012808859447E-01
(PID.TID 0000.0001) %MON dynstat_eta_del2             =   2.1663640473079E-02
(PID.TID 0000.0001) %MON dynstat_uvel_max             =   1.4992543061681E-01
(PID.TID 0000.0001) %MON dynstat_uvel_min             =  -1.3081371122472E-01
(PID.TID 0000.0001) %MON dynstat_uvel_mean            =  -1.0385531644874E-02
(PID.TID 0000.0001) %MON dynstat_uvel_sd              =   1.6541496859340E-02
(PID.TID 0000.0001) %MON dynstat_uvel_del2            =   3.5151958745922E-03
(PID.TID 0000.0001) %MON dynstat_vvel_max             =   1.3649740937867E-01
(PID.TID 0000.0001) %MON dynstat_vvel_min             =  -1.0651565080709E-01
(PID.TID 0000.0001) %MON dynstat_vvel_mean            =   3.8045874781323E-03
(PID.TID 0000.0001) %MON dynstat_vvel_sd              =   1.4411807263331E-02
(PID.TID 0000.0001) %MON dynstat_vvel_del2            =   3.4888748701843E-03
(PID.TID 0000.0001) %MON dynstat_wvel_max             =   2.5386160540158E-04
(PID.TID 0000.0001) %MON dynstat_wvel_min             =  -3.6420840371934E-04
(PID.TID 0000.0001) %MON dynstat_wvel_mean            =  -4.6326849993493E-23
(PID.TID 0000.0001) %MON dynstat_wvel_sd              =   3.3458779820946E-05
(PID.TID 0000.0001) %MON dynstat_wvel_del2            =   1.1357664738402E-05
(PID.TID 0000.0001) %MON dynstat_theta_max            =   2.9549442205721E+01
(PID.TID 0000.0001) %MON dynstat_theta_min            =  -2.1393586143945E+00
(PID.TID 0000.0001) %MON dynstat_theta_mean           =   3.5980195306412E+00
(PID.TID 0000.0001) %MON dynstat_theta_sd             =   4.3662304115537E+00
(PID.TID 0000.0001) %MON dynstat_theta_del2           =   1.4140067208717E-01
(PID.TID 0000.0001) %MON dynstat_salt_max             =   3.7427289322038E+01
(PID.TID 0000.0001) %MON dynstat_salt_min             =   2.9783204890649E+01
(PID.TID 0000.0001) %MON dynstat_salt_mean            =   3.4716291394491E+01
(PID.TID 0000.0001) %MON dynstat_salt_sd              =   2.9603448109228E-01
(PID.TID 0000.0001) %MON dynstat_salt_del2            =   2.6046990685169E-02
(PID.TID 0000.0001) %MON dynstat_sst_max              =   2.9549442205721E+01
(PID.TID 0000.0001) %MON dynstat_sst_min              =  -1.9040805721900E+00
(PID.TID 0000.0001) %MON dynstat_sst_mean             =   1.8482090423950E+01
(PID.TID 0000.0001) %MON dynstat_sst_sd               =   8.9851637318394E+00
(PID.TID 0000.0001) %MON dynstat_sst_del2             =   2.7401308972525E-01
(PID.TID 0000.0001) %MON dynstat_sss_max              =   3.7427289322038E+01
(PID.TID 0000.0001) %MON dynstat_sss_min              =   2.9783204890649E+01
(PID.TID 0000.0001) %MON dynstat_sss_mean             =   3.4847538045150E+01
(PID.TID 0000.0001) %MON dynstat_sss_sd               =   9.6835374761882E-01
(PID.TID 0000.0001) %MON dynstat_sss_del2             =   8.2787091799702E-02
(PID.TID 0000.0001) %MON extforcing_qnet_max          =   4.3322811889648E+02
(PID.TID 0000.0001) %MON extforcing_qnet_min          =  -1.8375684712728E+02
(PID.TID 0000.0001) %MON extforcing_qnet_mean         =  -1.6612621647629E+01
(PID.TID 0000.0001) %MON extforcing_qnet_sd           =   1.1139030190430E+02
(PID.TID 0000.0001) %MON extforcing_qnet_del2         =   9.5233734793557E+00
(PID.TID 0000.0001) %MON extforcing_qsw_max           =   0.0000000000000E+00
(PID.TID 0000.0001) %MON extforcing_qsw_min           =   0.0000000000000E+00
(PID.TID 0000.0001) %MON extforcing_qsw_mean          =   0.0000000000000E+00
(PID.TID 0000.0001) %MON extforcing_qsw_sd            =   0.0000000000000E+00
(PID.TID 0000.0001) %MON extforcing_qsw_del2          =   0.0000000000000E+00
(PID.TID 0000.0001) %MON extforcing_empmr_max         =   0.0000000000000E+00
(PID.TID 0000.0001) %MON extforcing_empmr_min         =   0.0000000000000E+00
(PID.TID 0000.0001) %MON extforcing_empmr_mean        =   0.0000000000000E+00
(PID.TID 0000.0001) %MON extforcing_empmr_sd          =   0.0000000000000E+00
(PID.TID 0000.0001) %MON extforcing_empmr_del2        =   0.0000000000000E+00
(PID.TID 0000.0001) %MON extforcing_fu_max            =   2.6985520720482E-01
(PID.TID 0000.0001) %MON extforcing_fu_min            =  -1.6437321007252E-01
(PID.TID 0000.0001) %MON extforcing_fu_mean           =   1.6063277720863E-02
(PID.TID 0000.0001) %MON extforcing_fu_sd             =   9.0275341241088E-02
(PID.TID 0000.0001) %MON extforcing_fu_del2           =   7.3960599965135E-03
(PID.TID 0000.0001) %MON extforcing_fv_max            =   2.1808207929134E-01
(PID.TID 0000.0001) %MON extforcing_fv_min            =  -1.8281415998936E-01
(PID.TID 0000.0001) %MON extforcing_fv_mean           =  -5.8489979543916E-03
(PID.TID 0000.0001) %MON extforcing_fv_sd             =   4.6198708258185E-02
(PID.TID 0000.0001) %MON extforcing_fv_del2           =   4.4368253517913E-03
(PID.TID 0000.0001) %MON advcfl_uvel_max              =   2.7838314652637E-02
(PID.TID 0000.0001) %MON advcfl_vvel_max              =   1.3259628743511E-02
(PID.TID 0000.0001) %MON advcfl_wvel_max              =   1.5766467284142E-01
(PID.TID 0000.0001) %MON advcfl_W_hf_max              =   1.3991277817120E-01
(PID.TID 0000.0001) %MON pe_b_mean                    =   1.6595685350197E-04
(PID.TID 0000.0001) %MON ke_max                       =   1.1420333486958E-02
(PID.TID 0000.0001) %MON ke_mean                      =   2.7305644312267E-04
(PID.TID 0000.0001) %MON ke_vol                       =   1.3226782436723E+18
(PID.TID 0000.0001) %MON vort_r_min                   =  -3.7111317603671E-07
(PID.TID 0000.0001) %MON vort_r_max                   =   5.9968304617074E-07
(PID.TID 0000.0001) %MON vort_a_mean                  =  -2.5205769754075E-05
(PID.TID 0000.0001) %MON vort_a_sd                    =   7.3401278001293E-05
(PID.TID 0000.0001) %MON vort_p_mean                  =  -3.1758670011862E-05
(PID.TID 0000.0001) %MON vort_p_sd                    =   1.3125982839987E-04
(PID.TID 0000.0001) %MON surfExpan_theta_mean         =   1.0140738957823E-04
(PID.TID 0000.0001) %MON surfExpan_salt_mean          =   6.0022776641223E-06
(PID.TID 0000.0001) // =======================================================
(PID.TID 0000.0001) // End MONITOR dynamic field statistics
(PID.TID 0000.0001) // =======================================================
time,SST,SSS,fu,fv,Q,E-P,i0,i1,a,b =   6.4800E+05  5.0579E-01  3.4539E+01 -3.8067E-02 -6.0505E-02  2.6543E+02  0.0000E+00    12     1  7.5000E-01  2.5000E-01
time,fu0,fu1,fu =   6.4800E+05 -4.5368E-02 -3.5633E-02 -3.8067E-02  7.500000000000000E-01  2.500000000000000E-01
 cg2d: Sum(rhs),rhsMax =  -5.59292195889682E-13  1.00472791850534E+01
(PID.TID 0000.0001)                    cg2d_init_res =    8.45078613956382E-01
(PID.TID 0000.0001)                       cg2d_iters =    25
(PID.TID 0000.0001)                         cg2d_res =    4.56043144146312E-14
(PID.TID 0000.0001) // =======================================================
(PID.TID 0000.0001) // Begin MONITOR dynamic field statistics
(PID.TID 0000.0001) // =======================================================
(PID.TID 0000.0001) %MON time_tsnumber                =                    16
(PID.TID 0000.0001) %MON time_secondsf                =   6.9120000000000E+05
(PID.TID 0000.0001) %MON dynstat_eta_max              =   1.2111396057374E+00
(PID.TID 0000.0001) %MON dynstat_eta_min              =  -1.1855143872002E+00
(PID.TID 0000.0001) %MON dynstat_eta_mean             =   5.1004811701583E-16
(PID.TID 0000.0001) %MON dynstat_eta_sd               =   3.6866939345719E-01
(PID.TID 0000.0001) %MON dynstat_eta_del2             =   2.1184093774982E-02
(PID.TID 0000.0001) %MON dynstat_uvel_max             =   1.5882954447823E-01
(PID.TID 0000.0001) %MON dynstat_uvel_min             =  -1.3183776875324E-01
(PID.TID 0000.0001) %MON dynstat_uvel_mean            =  -1.0451498557272E-02
(PID.TID 0000.0001) %MON dynstat_uvel_sd              =   1.7155381980272E-02
(PID.TID 0000.0001) %MON dynstat_uvel_del2            =   3.5735968460624E-03
(PID.TID 0000.0001) %MON dynstat_vvel_max             =   1.4663358843264E-01
(PID.TID 0000.0001) %MON dynstat_vvel_min             =  -1.0862460507473E-01
(PID.TID 0000.0001) %MON dynstat_vvel_mean            =   3.4309272179868E-03
(PID.TID 0000.0001) %MON dynstat_vvel_sd              =   1.4144727221610E-02
(PID.TID 0000.0001) %MON dynstat_vvel_del2            =   3.4750541581796E-03
(PID.TID 0000.0001) %MON dynstat_wvel_max             =   2.6143667446229E-04
(PID.TID 0000.0001) %MON dynstat_wvel_min             =  -3.5644665069615E-04
(PID.TID 0000.0001) %MON dynstat_wvel_mean            =  -1.0408259523665E-21
(PID.TID 0000.0001) %MON dynstat_wvel_sd              =   3.2270365735919E-05
(PID.TID 0000.0001) %MON dynstat_wvel_del2            =   1.0821748803393E-05
(PID.TID 0000.0001) %MON dynstat_theta_max            =   2.9526627674515E+01
(PID.TID 0000.0001) %MON dynstat_theta_min            =  -2.1273055288750E+00
(PID.TID 0000.0001) %MON dynstat_theta_mean           =   3.5970120953409E+00
(PID.TID 0000.0001) %MON dynstat_theta_sd             =   4.3628685692472E+00
(PID.TID 0000.0001) %MON dynstat_theta_del2           =   1.4107420116798E-01
(PID.TID 0000.0001) %MON dynstat_salt_max             =   3.7427453921148E+01
(PID.TID 0000.0001) %MON dynstat_salt_min             =   2.9782988062595E+01
(PID.TID 0000.0001) %MON dynstat_salt_mean            =   3.4716233334541E+01
(PID.TID 0000.0001) %MON dynstat_salt_sd              =   2.9599782974269E-01
(PID.TID 0000.0001) %MON dynstat_salt_del2            =   2.6042079887641E-02
(PID.TID 0000.0001) %MON dynstat_sst_max              =   2.9526627674515E+01
(PID.TID 0000.0001) %MON dynstat_sst_min              =  -1.9045530426591E+00
(PID.TID 0000.0001) %MON dynstat_sst_mean             =   1.8482888165600E+01
(PID.TID 0000.0001) %MON dynstat_sst_sd               =   8.9724746886249E+00
(PID.TID 0000.0001) %MON dynstat_sst_del2             =   2.7396700783037E-01
(PID.TID 0000.0001) %MON dynstat_sss_max              =   3.7427453921148E+01
(PID.TID 0000.0001) %MON dynstat_sss_min              =   2.9782988062595E+01
(PID.TID 0000.0001) %MON dynstat_sss_mean             =   3.4848065020318E+01
(PID.TID 0000.0001) %MON dynstat_sss_sd               =   9.6844238692800E-01
(PID.TID 0000.0001) %MON dynstat_sss_del2             =   8.2632432035686E-02
(PID.TID 0000.0001) %MON extforcing_qnet_max          =   4.3375221252441E+02
(PID.TID 0000.0001) %MON extforcing_qnet_min          =  -1.8352326583862E+02
(PID.TID 0000.0001) %MON extforcing_qnet_mean         =  -1.6606365669717E+01
(PID.TID 0000.0001) %MON extforcing_qnet_sd           =   1.1129044586711E+02
(PID.TID 0000.0001) %MON extforcing_qnet_del2         =   9.5291711143104E+00
(PID.TID 0000.0001) %MON extforcing_qsw_max           =   0.0000000000000E+00
(PID.TID 0000.0001) %MON extforcing_qsw_min           =   0.0000000000000E+00
(PID.TID 0000.0001) %MON extforcing_qsw_mean          =   0.0000000000000E+00
(PID.TID 0000.0001) %MON extforcing_qsw_sd            =   0.0000000000000E+00
(PID.TID 0000.0001) %MON extforcing_qsw_del2          =   0.0000000000000E+00
(PID.TID 0000.0001) %MON extforcing_empmr_max         =   0.0000000000000E+00
(PID.TID 0000.0001) %MON extforcing_empmr_min         =   0.0000000000000E+00
(PID.TID 0000.0001) %MON extforcing_empmr_mean        =   0.0000000000000E+00
(PID.TID 0000.0001) %MON extforcing_empmr_sd          =   0.0000000000000E+00
(PID.TID 0000.0001) %MON extforcing_empmr_del2        =   0.0000000000000E+00
(PID.TID 0000.0001) %MON extforcing_fu_max            =   2.6989585161209E-01
(PID.TID 0000.0001) %MON extforcing_fu_min            =  -1.6477992013097E-01
(PID.TID 0000.0001) %MON extforcing_fu_mean           =   1.6059431310345E-02
(PID.TID 0000.0001) %MON extforcing_fu_sd             =   9.0304398660509E-02
(PID.TID 0000.0001) %MON extforcing_fu_del2           =   7.4057201441639E-03
(PID.TID 0000.0001) %MON extforcing_fv_max            =   2.1902203187346E-01
(PID.TID 0000.0001) %MON extforcing_fv_min            =  -1.8252183124423E-01
(PID.TID 0000.0001) %MON extforcing_fv_mean           =  -5.8121166909612E-03
(PID.TID 0000.0001) %MON extforcing_fv_sd             =   4.6300829171334E-02
(PID.TID 0000.0001) %MON extforcing_fv_del2           =   4.4537951403146E-03
(PID.TID 0000.0001) %MON advcfl_uvel_max              =   2.7278065424078E-02
(PID.TID 0000.0001) %MON advcfl_vvel_max              =   1.4244277256221E-02
(PID.TID 0000.0001) %MON advcfl_wvel_max              =   1.6533548109045E-01
(PID.TID 0000.0001) %MON advcfl_W_hf_max              =   1.3744388880746E-01
(PID.TID 0000.0001) %MON pe_b_mean                    =   1.7392233965487E-04
(PID.TID 0000.0001) %MON ke_max                       =   1.2330424620617E-02
(PID.TID 0000.0001) %MON ke_mean                      =   2.7844107607165E-04
(PID.TID 0000.0001) %MON ke_vol                       =   1.3226782436723E+18
(PID.TID 0000.0001) %MON vort_r_min                   =  -3.9181643543111E-07
(PID.TID 0000.0001) %MON vort_r_max                   =   5.6526217999122E-07
(PID.TID 0000.0001) %MON vort_a_mean                  =  -2.5205769711726E-05
(PID.TID 0000.0001) %MON vort_a_sd                    =   7.3401255030877E-05
(PID.TID 0000.0001) %MON vort_p_mean                  =  -3.1758669958503E-05
(PID.TID 0000.0001) %MON vort_p_sd                    =   1.3125972386383E-04
(PID.TID 0000.0001) %MON surfExpan_theta_mean         =   8.6900888198147E-05
(PID.TID 0000.0001) %MON surfExpan_salt_mean          =   4.6091624870916E-06
(PID.TID 0000.0001) // =======================================================
(PID.TID 0000.0001) // End MONITOR dynamic field statistics
(PID.TID 0000.0001) // =======================================================
time,SST,SSS,fu,fv,Q,E-P,i0,i1,a,b =   6.9120E+05  5.3596E-01  3.4551E+01 -3.7904E-02 -6.0288E-02  2.6546E+02  0.0000E+00    12     1  7.6667E-01  2.3333E-01
time,fu0,fu1,fu =   6.9120E+05 -4.5368E-02 -3.5633E-02 -3.7904E-02  7.666666666666667E-01  2.333333333333333E-01
 cg2d: Sum(rhs),rhsMax =  -9.50628464835290E-13  1.01282964952821E+01
(PID.TID 0000.0001)                    cg2d_init_res =    8.22936612981505E-01
(PID.TID 0000.0001)                       cg2d_iters =    24
(PID.TID 0000.0001)                         cg2d_res =    6.95784050996841E-14
(PID.TID 0000.0001) // =======================================================
(PID.TID 0000.0001) // Begin MONITOR dynamic field statistics
(PID.TID 0000.0001) // =======================================================
(PID.TID 0000.0001) %MON time_tsnumber                =                    17
(PID.TID 0000.0001) %MON time_secondsf                =   7.3440000000000E+05
(PID.TID 0000.0001) %MON dynstat_eta_max              =   1.2207313086177E+00
(PID.TID 0000.0001) %MON dynstat_eta_min              =  -1.1613286715146E+00
(PID.TID 0000.0001) %MON dynstat_eta_mean             =   6.4089658316431E-16
(PID.TID 0000.0001) %MON dynstat_eta_sd               =   3.7496064374872E-01
(PID.TID 0000.0001) %MON dynstat_eta_del2             =   2.0740062789427E-02
(PID.TID 0000.0001) %MON dynstat_uvel_max             =   1.6668627816331E-01
(PID.TID 0000.0001) %MON dynstat_uvel_min             =  -1.2975307452318E-01
(PID.TID 0000.0001) %MON dynstat_uvel_mean            =  -1.0376381435624E-02
(PID.TID 0000.0001) %MON dynstat_uvel_sd              =   1.7655893319953E-02
(PID.TID 0000.0001) %MON dynstat_uvel_del2            =   3.6198078680544E-03
(PID.TID 0000.0001) %MON dynstat_vvel_max             =   1.5289421370580E-01
(PID.TID 0000.0001) %MON dynstat_vvel_min             =  -1.0902009373639E-01
(PID.TID 0000.0001) %MON dynstat_vvel_mean            =   3.0724459733951E-03
(PID.TID 0000.0001) %MON dynstat_vvel_sd              =   1.3932256190908E-02
(PID.TID 0000.0001) %MON dynstat_vvel_del2            =   3.4544902306677E-03
(PID.TID 0000.0001) %MON dynstat_wvel_max             =   2.6674060253039E-04
(PID.TID 0000.0001) %MON dynstat_wvel_min             =  -3.4574825218114E-04
(PID.TID 0000.0001) %MON dynstat_wvel_mean            =   1.5335719821006E-21
(PID.TID 0000.0001) %MON dynstat_wvel_sd              =   3.1062553929715E-05
(PID.TID 0000.0001) %MON dynstat_wvel_del2            =   1.0270883543454E-05
(PID.TID 0000.0001) %MON dynstat_theta_max            =   2.9491066905134E+01
(PID.TID 0000.0001) %MON dynstat_theta_min            =  -2.1090305916857E+00
(PID.TID 0000.0001) %MON dynstat_theta_mean           =   3.5961703918005E+00
(PID.TID 0000.0001) %MON dynstat_theta_sd             =   4.3598052817196E+00
(PID.TID 0000.0001) %MON dynstat_theta_del2           =   1.4078743313135E-01
(PID.TID 0000.0001) %MON dynstat_salt_max             =   3.7427535679305E+01
(PID.TID 0000.0001) %MON dynstat_salt_min             =   2.9782540023693E+01
(PID.TID 0000.0001) %MON dynstat_salt_mean            =   3.4716190813937E+01
(PID.TID 0000.0001) %MON dynstat_salt_sd              =   2.9596142082726E-01
(PID.TID 0000.0001) %MON dynstat_salt_del2            =   2.6045550204625E-02
(PID.TID 0000.0001) %MON dynstat_sst_max              =   2.9491066905134E+01
(PID.TID 0000.0001) %MON dynstat_sst_min              =  -1.9049764182299E+00
(PID.TID 0000.0001) %MON dynstat_sst_mean             =   1.8484132293459E+01
(PID.TID 0000.0001) %MON dynstat_sst_sd               =   8.9609106665876E+00
(PID.TID 0000.0001) %MON dynstat_sst_del2             =   2.7414522604671E-01
(PID.TID 0000.0001) %MON dynstat_sss_max              =   3.7427535679305E+01
(PID.TID 0000.0001) %MON dynstat_sss_min              =   2.9782540023693E+01
(PID.TID 0000.0001) %MON dynstat_sss_mean             =   3.4848758928618E+01
(PID.TID 0000.0001) %MON dynstat_sss_sd               =   9.6850946102765E-01
(PID.TID 0000.0001) %MON dynstat_sss_del2             =   8.2591178829236E-02
(PID.TID 0000.0001) %MON extforcing_qnet_max          =   4.3427630615234E+02
(PID.TID 0000.0001) %MON extforcing_qnet_min          =  -1.8328968454997E+02
(PID.TID 0000.0001) %MON extforcing_qnet_mean         =  -1.6600109691805E+01
(PID.TID 0000.0001) %MON extforcing_qnet_sd           =   1.1119125063866E+02
(PID.TID 0000.0001) %MON extforcing_qnet_del2         =   9.5355422152042E+00
(PID.TID 0000.0001) %MON extforcing_qsw_max           =   0.0000000000000E+00
(PID.TID 0000.0001) %MON extforcing_qsw_min           =   0.0000000000000E+00
(PID.TID 0000.0001) %MON extforcing_qsw_mean          =   0.0000000000000E+00
(PID.TID 0000.0001) %MON extforcing_qsw_sd            =   0.0000000000000E+00
(PID.TID 0000.0001) %MON extforcing_qsw_del2          =   0.0000000000000E+00
(PID.TID 0000.0001) %MON extforcing_empmr_max         =   0.0000000000000E+00
(PID.TID 0000.0001) %MON extforcing_empmr_min         =   0.0000000000000E+00
(PID.TID 0000.0001) %MON extforcing_empmr_mean        =   0.0000000000000E+00
(PID.TID 0000.0001) %MON extforcing_empmr_sd          =   0.0000000000000E+00
(PID.TID 0000.0001) %MON extforcing_empmr_del2        =   0.0000000000000E+00
(PID.TID 0000.0001) %MON extforcing_fu_max            =   2.6993649601936E-01
(PID.TID 0000.0001) %MON extforcing_fu_min            =  -1.6518663018942E-01
(PID.TID 0000.0001) %MON extforcing_fu_mean           =   1.6055584899826E-02
(PID.TID 0000.0001) %MON extforcing_fu_sd             =   9.0336157001452E-02
(PID.TID 0000.0001) %MON extforcing_fu_del2           =   7.4166606390209E-03
(PID.TID 0000.0001) %MON extforcing_fv_max            =   2.1996198445559E-01
(PID.TID 0000.0001) %MON extforcing_fv_min            =  -1.8222950249910E-01
(PID.TID 0000.0001) %MON extforcing_fv_mean           =  -5.7752354275307E-03
(PID.TID 0000.0001) %MON extforcing_fv_sd             =   4.6406538642117E-02
(PID.TID 0000.0001) %MON extforcing_fv_del2           =   4.4720700663992E-03
(PID.TID 0000.0001) %MON advcfl_uvel_max              =   2.5033773243369E-02
(PID.TID 0000.0001) %MON advcfl_vvel_max              =   1.4852446797329E-02
(PID.TID 0000.0001) %MON advcfl_wvel_max              =   1.7353398045823E-01
(PID.TID 0000.0001) %MON advcfl_W_hf_max              =   1.4545886532437E-01
(PID.TID 0000.0001) %MON pe_b_mean                    =   1.7990886861092E-04
(PID.TID 0000.0001) %MON ke_max                       =   1.3150752722515E-02
(PID.TID 0000.0001) %MON ke_mean                      =   2.8192118328209E-04
(PID.TID 0000.0001) %MON ke_vol                       =   1.3226782436723E+18
(PID.TID 0000.0001) %MON vort_r_min                   =  -4.1886569643513E-07
(PID.TID 0000.0001) %MON vort_r_max                   =   5.1671684915664E-07
(PID.TID 0000.0001) %MON vort_a_mean                  =  -2.5205769655454E-05
(PID.TID 0000.0001) %MON vort_a_sd                    =   7.3401258272541E-05
(PID.TID 0000.0001) %MON vort_p_mean                  =  -3.1758669887602E-05
(PID.TID 0000.0001) %MON vort_p_sd                    =   1.3125972970967E-04
(PID.TID 0000.0001) %MON surfExpan_theta_mean         =   7.2452500017115E-05
(PID.TID 0000.0001) %MON surfExpan_salt_mean          =   3.2634078116973E-06
(PID.TID 0000.0001) // =======================================================
(PID.TID 0000.0001) // End MONITOR dynamic field statistics
(PID.TID 0000.0001) // =======================================================
time,SST,SSS,fu,fv,Q,E-P,i0,i1,a,b =   7.3440E+05  5.6614E-01  3.4563E+01 -3.7742E-02 -6.0072E-02  2.6548E+02  0.0000E+00    12     1  7.8333E-01  2.1667E-01
time,fu0,fu1,fu =   7.3440E+05 -4.5368E-02 -3.5633E-02 -3.7742E-02  7.833333333333333E-01  2.166666666666667E-01
 cg2d: Sum(rhs),rhsMax =  -9.42693839656172E-13  1.00066236471320E+01
(PID.TID 0000.0001)                    cg2d_init_res =    8.19481701015815E-01
(PID.TID 0000.0001)                       cg2d_iters =    25
(PID.TID 0000.0001)                         cg2d_res =    3.14876460587237E-14
(PID.TID 0000.0001) // =======================================================
(PID.TID 0000.0001) // Begin MONITOR dynamic field statistics
(PID.TID 0000.0001) // =======================================================
(PID.TID 0000.0001) %MON time_tsnumber                =                    18
(PID.TID 0000.0001) %MON time_secondsf                =   7.7760000000000E+05
(PID.TID 0000.0001) %MON dynstat_eta_max              =   1.2068189096242E+00
(PID.TID 0000.0001) %MON dynstat_eta_min              =  -1.1696896642650E+00
(PID.TID 0000.0001) %MON dynstat_eta_mean             =   6.3666202786915E-16
(PID.TID 0000.0001) %MON dynstat_eta_sd               =   3.7921875269161E-01
(PID.TID 0000.0001) %MON dynstat_eta_del2             =   2.0364529012570E-02
(PID.TID 0000.0001) %MON dynstat_uvel_max             =   1.7335108386458E-01
(PID.TID 0000.0001) %MON dynstat_uvel_min             =  -1.3307394235641E-01
(PID.TID 0000.0001) %MON dynstat_uvel_mean            =  -1.0171030567233E-02
(PID.TID 0000.0001) %MON dynstat_uvel_sd              =   1.8050481861478E-02
(PID.TID 0000.0001) %MON dynstat_uvel_del2            =   3.6546106614806E-03
(PID.TID 0000.0001) %MON dynstat_vvel_max             =   1.5465441874621E-01
(PID.TID 0000.0001) %MON dynstat_vvel_min             =  -1.1943981120346E-01
(PID.TID 0000.0001) %MON dynstat_vvel_mean            =   2.7473903045213E-03
(PID.TID 0000.0001) %MON dynstat_vvel_sd              =   1.3782122634771E-02
(PID.TID 0000.0001) %MON dynstat_vvel_del2            =   3.4329599056108E-03
(PID.TID 0000.0001) %MON dynstat_wvel_max             =   2.6977417459995E-04
(PID.TID 0000.0001) %MON dynstat_wvel_min             =  -3.3143374733606E-04
(PID.TID 0000.0001) %MON dynstat_wvel_mean            =  -1.0353440277974E-21
(PID.TID 0000.0001) %MON dynstat_wvel_sd              =   2.9898544981747E-05
(PID.TID 0000.0001) %MON dynstat_wvel_del2            =   9.7304277938897E-06
(PID.TID 0000.0001) %MON dynstat_theta_max            =   2.9448998040929E+01
(PID.TID 0000.0001) %MON dynstat_theta_min            =  -2.0857402561311E+00
(PID.TID 0000.0001) %MON dynstat_theta_mean           =   3.5954913855983E+00
(PID.TID 0000.0001) %MON dynstat_theta_sd             =   4.3570704274638E+00
(PID.TID 0000.0001) %MON dynstat_theta_del2           =   1.4054150892226E-01
(PID.TID 0000.0001) %MON dynstat_salt_max             =   3.7423350971085E+01
(PID.TID 0000.0001) %MON dynstat_salt_min             =   2.9781952205221E+01
(PID.TID 0000.0001) %MON dynstat_salt_mean            =   3.4716163114865E+01
(PID.TID 0000.0001) %MON dynstat_salt_sd              =   2.9592662917167E-01
(PID.TID 0000.0001) %MON dynstat_salt_del2            =   2.6048918155918E-02
(PID.TID 0000.0001) %MON dynstat_sst_max              =   2.9448998040929E+01
(PID.TID 0000.0001) %MON dynstat_sst_min              =  -1.9073994516372E+00
(PID.TID 0000.0001) %MON dynstat_sst_mean             =   1.8485242288875E+01
(PID.TID 0000.0001) %MON dynstat_sst_sd               =   8.9509944045120E+00
(PID.TID 0000.0001) %MON dynstat_sst_del2             =   2.7391306783951E-01
(PID.TID 0000.0001) %MON dynstat_sss_max              =   3.7423350971085E+01
(PID.TID 0000.0001) %MON dynstat_sss_min              =   2.9781952205221E+01
(PID.TID 0000.0001) %MON dynstat_sss_mean             =   3.4849465204943E+01
(PID.TID 0000.0001) %MON dynstat_sss_sd               =   9.6842448397376E-01
(PID.TID 0000.0001) %MON dynstat_sss_del2             =   8.2463648422400E-02
(PID.TID 0000.0001) %MON extforcing_qnet_max          =   4.3480039978027E+02
(PID.TID 0000.0001) %MON extforcing_qnet_min          =  -1.8305610326131E+02
(PID.TID 0000.0001) %MON extforcing_qnet_mean         =  -1.6593853713894E+01
(PID.TID 0000.0001) %MON extforcing_qnet_sd           =   1.1109271798907E+02
(PID.TID 0000.0001) %MON extforcing_qnet_del2         =   9.5423232691309E+00
(PID.TID 0000.0001) %MON extforcing_qsw_max           =   0.0000000000000E+00
(PID.TID 0000.0001) %MON extforcing_qsw_min           =   0.0000000000000E+00
(PID.TID 0000.0001) %MON extforcing_qsw_mean          =   0.0000000000000E+00
(PID.TID 0000.0001) %MON extforcing_qsw_sd            =   0.0000000000000E+00
(PID.TID 0000.0001) %MON extforcing_qsw_del2          =   0.0000000000000E+00
(PID.TID 0000.0001) %MON extforcing_empmr_max         =   0.0000000000000E+00
(PID.TID 0000.0001) %MON extforcing_empmr_min         =   0.0000000000000E+00
(PID.TID 0000.0001) %MON extforcing_empmr_mean        =   0.0000000000000E+00
(PID.TID 0000.0001) %MON extforcing_empmr_sd          =   0.0000000000000E+00
(PID.TID 0000.0001) %MON extforcing_empmr_del2        =   0.0000000000000E+00
(PID.TID 0000.0001) %MON extforcing_fu_max            =   2.6997714042664E-01
(PID.TID 0000.0001) %MON extforcing_fu_min            =  -1.6559334024787E-01
(PID.TID 0000.0001) %MON extforcing_fu_mean           =   1.6051738489308E-02
(PID.TID 0000.0001) %MON extforcing_fu_sd             =   9.0370613416417E-02
(PID.TID 0000.0001) %MON extforcing_fu_del2           =   7.4281236304034E-03
(PID.TID 0000.0001) %MON extforcing_fv_max            =   2.2090193703771E-01
(PID.TID 0000.0001) %MON extforcing_fv_min            =  -1.8193717375398E-01
(PID.TID 0000.0001) %MON extforcing_fv_mean           =  -5.7383541641004E-03
(PID.TID 0000.0001) %MON extforcing_fv_sd             =   4.6515812205020E-02
(PID.TID 0000.0001) %MON extforcing_fv_del2           =   4.4920210397820E-03
(PID.TID 0000.0001) %MON advcfl_uvel_max              =   2.4241653746648E-02
(PID.TID 0000.0001) %MON advcfl_vvel_max              =   1.5023436601858E-02
(PID.TID 0000.0001) %MON advcfl_wvel_max              =   1.7648349835226E-01
(PID.TID 0000.0001) %MON advcfl_W_hf_max              =   1.4757427027182E-01
(PID.TID 0000.0001) %MON pe_b_mean                    =   1.8401821388003E-04
(PID.TID 0000.0001) %MON ke_max                       =   1.3876560104649E-02
(PID.TID 0000.0001) %MON ke_mean                      =   2.8368793658052E-04
(PID.TID 0000.0001) %MON ke_vol                       =   1.3226782436723E+18
(PID.TID 0000.0001) %MON vort_r_min                   =  -4.5079432205508E-07
(PID.TID 0000.0001) %MON vort_r_max                   =   4.5622909388485E-07
(PID.TID 0000.0001) %MON vort_a_mean                  =  -2.5205769592918E-05
(PID.TID 0000.0001) %MON vort_a_sd                    =   7.3401286141664E-05
(PID.TID 0000.0001) %MON vort_p_mean                  =  -3.1758669808808E-05
(PID.TID 0000.0001) %MON vort_p_sd                    =   1.3125983597386E-04
(PID.TID 0000.0001) %MON surfExpan_theta_mean         =   5.8392946720576E-05
(PID.TID 0000.0001) %MON surfExpan_salt_mean          =   1.9900225925912E-06
(PID.TID 0000.0001) // =======================================================
(PID.TID 0000.0001) // End MONITOR dynamic field statistics
(PID.TID 0000.0001) // =======================================================
time,SST,SSS,fu,fv,Q,E-P,i0,i1,a,b =   7.7760E+05  5.9632E-01  3.4574E+01 -3.7580E-02 -5.9855E-02  2.6550E+02  0.0000E+00    12     1  8.0000E-01  2.0000E-01
time,fu0,fu1,fu =   7.7760E+05 -4.5368E-02 -3.5633E-02 -3.7580E-02  8.000000000000000E-01  2.000000000000000E-01
 cg2d: Sum(rhs),rhsMax =  -7.33786295614713E-13  9.70409645617043E+00
(PID.TID 0000.0001)                    cg2d_init_res =    8.31642829922350E-01
(PID.TID 0000.0001)                       cg2d_iters =    25
(PID.TID 0000.0001)                         cg2d_res =    3.02218491114611E-14
(PID.TID 0000.0001) // =======================================================
(PID.TID 0000.0001) // Begin MONITOR dynamic field statistics
(PID.TID 0000.0001) // =======================================================
(PID.TID 0000.0001) %MON time_tsnumber                =                    19
(PID.TID 0000.0001) %MON time_secondsf                =   8.2080000000000E+05
(PID.TID 0000.0001) %MON dynstat_eta_max              =   1.1719971390956E+00
(PID.TID 0000.0001) %MON dynstat_eta_min              =  -1.1424836986943E+00
(PID.TID 0000.0001) %MON dynstat_eta_mean             =   6.4757741664377E-16
(PID.TID 0000.0001) %MON dynstat_eta_sd               =   3.8169645660851E-01
(PID.TID 0000.0001) %MON dynstat_eta_del2             =   2.0096390918767E-02
(PID.TID 0000.0001) %MON dynstat_uvel_max             =   1.7870390416442E-01
(PID.TID 0000.0001) %MON dynstat_uvel_min             =  -1.3886278688848E-01
(PID.TID 0000.0001) %MON dynstat_uvel_mean            =  -9.8497301288298E-03
(PID.TID 0000.0001) %MON dynstat_uvel_sd              =   1.8347972230805E-02
(PID.TID 0000.0001) %MON dynstat_uvel_del2            =   3.6796433907494E-03
(PID.TID 0000.0001) %MON dynstat_vvel_max             =   1.5151068285294E-01
(PID.TID 0000.0001) %MON dynstat_vvel_min             =  -1.3309420965698E-01
(PID.TID 0000.0001) %MON dynstat_vvel_mean            =   2.4704852638413E-03
(PID.TID 0000.0001) %MON dynstat_vvel_sd              =   1.3692274289387E-02
(PID.TID 0000.0001) %MON dynstat_vvel_del2            =   3.4122862818881E-03
(PID.TID 0000.0001) %MON dynstat_wvel_max             =   2.7068338237941E-04
(PID.TID 0000.0001) %MON dynstat_wvel_min             =  -3.1410631396388E-04
(PID.TID 0000.0001) %MON dynstat_wvel_mean            =  -1.1258015174183E-22
(PID.TID 0000.0001) %MON dynstat_wvel_sd              =   2.8833864328490E-05
(PID.TID 0000.0001) %MON dynstat_wvel_del2            =   9.2763000960148E-06
(PID.TID 0000.0001) %MON dynstat_theta_max            =   2.9439845061301E+01
(PID.TID 0000.0001) %MON dynstat_theta_min            =  -2.0663693868419E+00
(PID.TID 0000.0001) %MON dynstat_theta_mean           =   3.5949685324853E+00
(PID.TID 0000.0001) %MON dynstat_theta_sd             =   4.3546880276506E+00
(PID.TID 0000.0001) %MON dynstat_theta_del2           =   1.4033675389191E-01
(PID.TID 0000.0001) %MON dynstat_salt_max             =   3.7422715714236E+01
(PID.TID 0000.0001) %MON dynstat_salt_min             =   2.9781320718680E+01
(PID.TID 0000.0001) %MON dynstat_salt_mean            =   3.4716149255519E+01
(PID.TID 0000.0001) %MON dynstat_salt_sd              =   2.9589427872196E-01
(PID.TID 0000.0001) %MON dynstat_salt_del2            =   2.6057093093405E-02
(PID.TID 0000.0001) %MON dynstat_sst_max              =   2.9439845061301E+01
(PID.TID 0000.0001) %MON dynstat_sst_min              =  -1.9085533388639E+00
(PID.TID 0000.0001) %MON dynstat_sst_mean             =   1.8486771847877E+01
(PID.TID 0000.0001) %MON dynstat_sst_sd               =   8.9422984814216E+00
(PID.TID 0000.0001) %MON dynstat_sst_del2             =   2.7368928622655E-01
(PID.TID 0000.0001) %MON dynstat_sss_max              =   3.7422715714236E+01
(PID.TID 0000.0001) %MON dynstat_sss_min              =   2.9781320718680E+01
(PID.TID 0000.0001) %MON dynstat_sss_mean             =   3.4850246626216E+01
(PID.TID 0000.0001) %MON dynstat_sss_sd               =   9.6826406172028E-01
(PID.TID 0000.0001) %MON dynstat_sss_del2             =   8.2339220641922E-02
(PID.TID 0000.0001) %MON extforcing_qnet_max          =   4.3532449340820E+02
(PID.TID 0000.0001) %MON extforcing_qnet_min          =  -1.8282252197266E+02
(PID.TID 0000.0001) %MON extforcing_qnet_mean         =  -1.6587597735982E+01
(PID.TID 0000.0001) %MON extforcing_qnet_sd           =   1.1099484968291E+02
(PID.TID 0000.0001) %MON extforcing_qnet_del2         =   9.5493322704987E+00
(PID.TID 0000.0001) %MON extforcing_qsw_max           =   0.0000000000000E+00
(PID.TID 0000.0001) %MON extforcing_qsw_min           =   0.0000000000000E+00
(PID.TID 0000.0001) %MON extforcing_qsw_mean          =   0.0000000000000E+00
(PID.TID 0000.0001) %MON extforcing_qsw_sd            =   0.0000000000000E+00
(PID.TID 0000.0001) %MON extforcing_qsw_del2          =   0.0000000000000E+00
(PID.TID 0000.0001) %MON extforcing_empmr_max         =   0.0000000000000E+00
(PID.TID 0000.0001) %MON extforcing_empmr_min         =   0.0000000000000E+00
(PID.TID 0000.0001) %MON extforcing_empmr_mean        =   0.0000000000000E+00
(PID.TID 0000.0001) %MON extforcing_empmr_sd          =   0.0000000000000E+00
(PID.TID 0000.0001) %MON extforcing_empmr_del2        =   0.0000000000000E+00
(PID.TID 0000.0001) %MON extforcing_fu_max            =   2.7001778483391E-01
(PID.TID 0000.0001) %MON extforcing_fu_min            =  -1.6600005030632E-01
(PID.TID 0000.0001) %MON extforcing_fu_mean           =   1.6047892078789E-02
(PID.TID 0000.0001) %MON extforcing_fu_sd             =   9.0407764820516E-02
(PID.TID 0000.0001) %MON extforcing_fu_del2           =   7.4408101367001E-03
(PID.TID 0000.0001) %MON extforcing_fv_max            =   2.2184188961983E-01
(PID.TID 0000.0001) %MON extforcing_fv_min            =  -1.8164484500885E-01
(PID.TID 0000.0001) %MON extforcing_fv_mean           =  -5.7014729006699E-03
(PID.TID 0000.0001) %MON extforcing_fv_sd             =   4.6628624802842E-02
(PID.TID 0000.0001) %MON extforcing_fv_del2           =   4.5135869181350E-03
(PID.TID 0000.0001) %MON advcfl_uvel_max              =   2.4990199491987E-02
(PID.TID 0000.0001) %MON advcfl_vvel_max              =   1.4718047869557E-02
(PID.TID 0000.0001) %MON advcfl_wvel_max              =   1.7355508495276E-01
(PID.TID 0000.0001) %MON advcfl_W_hf_max              =   1.5172513865261E-01
(PID.TID 0000.0001) %MON pe_b_mean                    =   1.8643071138298E-04
(PID.TID 0000.0001) %MON ke_max                       =   1.4508883256109E-02
(PID.TID 0000.0001) %MON ke_mean                      =   2.8392799328236E-04
(PID.TID 0000.0001) %MON ke_vol                       =   1.3226782436723E+18
(PID.TID 0000.0001) %MON vort_r_min                   =  -4.7102626967552E-07
(PID.TID 0000.0001) %MON vort_r_max                   =   4.0343045133487E-07
(PID.TID 0000.0001) %MON vort_a_mean                  =  -2.5205769531415E-05
(PID.TID 0000.0001) %MON vort_a_sd                    =   7.3401336410323E-05
(PID.TID 0000.0001) %MON vort_p_mean                  =  -3.1758669731316E-05
(PID.TID 0000.0001) %MON vort_p_sd                    =   1.3126002829373E-04
(PID.TID 0000.0001) %MON surfExpan_theta_mean         =   4.5025259200615E-05
(PID.TID 0000.0001) %MON surfExpan_salt_mean          =   8.1180238993514E-07
(PID.TID 0000.0001) // =======================================================
(PID.TID 0000.0001) // End MONITOR dynamic field statistics
(PID.TID 0000.0001) // =======================================================
time,SST,SSS,fu,fv,Q,E-P,i0,i1,a,b =   8.2080E+05  6.2649E-01  3.4586E+01 -3.7418E-02 -5.9638E-02  2.6552E+02  0.0000E+00    12     1  8.1667E-01  1.8333E-01
time,fu0,fu1,fu =   8.2080E+05 -4.5368E-02 -3.5633E-02 -3.7418E-02  8.166666666666667E-01  1.833333333333333E-01
 cg2d: Sum(rhs),rhsMax =  -1.15320773763639E-12  9.47667283578001E+00
(PID.TID 0000.0001)                    cg2d_init_res =    8.36955294293613E-01
(PID.TID 0000.0001)                       cg2d_iters =    25
(PID.TID 0000.0001)                         cg2d_res =    3.44253942656782E-14
(PID.TID 0000.0001) // =======================================================
(PID.TID 0000.0001) // Begin MONITOR dynamic field statistics
(PID.TID 0000.0001) // =======================================================
(PID.TID 0000.0001) %MON time_tsnumber                =                    20
(PID.TID 0000.0001) %MON time_secondsf                =   8.6400000000000E+05
(PID.TID 0000.0001) %MON dynstat_eta_max              =   1.1373520931830E+00
(PID.TID 0000.0001) %MON dynstat_eta_min              =  -1.0844837735413E+00
(PID.TID 0000.0001) %MON dynstat_eta_mean             =   3.0728827011349E-16
(PID.TID 0000.0001) %MON dynstat_eta_sd               =   3.8266457737811E-01
(PID.TID 0000.0001) %MON dynstat_eta_del2             =   2.0016194940997E-02
(PID.TID 0000.0001) %MON dynstat_uvel_max             =   1.8265204440813E-01
(PID.TID 0000.0001) %MON dynstat_uvel_min             =  -1.4417637892629E-01
(PID.TID 0000.0001) %MON dynstat_uvel_mean            =  -9.4291700869655E-03
(PID.TID 0000.0001) %MON dynstat_uvel_sd              =   1.8557382295586E-02
(PID.TID 0000.0001) %MON dynstat_uvel_del2            =   3.6951888102584E-03
(PID.TID 0000.0001) %MON dynstat_vvel_max             =   1.4331373794720E-01
(PID.TID 0000.0001) %MON dynstat_vvel_min             =  -1.4410398591485E-01
(PID.TID 0000.0001) %MON dynstat_vvel_mean            =   2.2525379991151E-03
(PID.TID 0000.0001) %MON dynstat_vvel_sd              =   1.3654314167947E-02
(PID.TID 0000.0001) %MON dynstat_vvel_del2            =   3.3965635275445E-03
(PID.TID 0000.0001) %MON dynstat_wvel_max             =   2.6972191048188E-04
(PID.TID 0000.0001) %MON dynstat_wvel_min             =  -2.9420493991429E-04
(PID.TID 0000.0001) %MON dynstat_wvel_mean            =  -1.5872350635226E-22
(PID.TID 0000.0001) %MON dynstat_wvel_sd              =   2.7912187791093E-05
(PID.TID 0000.0001) %MON dynstat_wvel_del2            =   8.9442085617108E-06
(PID.TID 0000.0001) %MON dynstat_theta_max            =   2.9427701010087E+01
(PID.TID 0000.0001) %MON dynstat_theta_min            =  -2.0640050785093E+00
(PID.TID 0000.0001) %MON dynstat_theta_mean           =   3.5945918851015E+00
(PID.TID 0000.0001) %MON dynstat_theta_sd             =   4.3526741602057E+00
(PID.TID 0000.0001) %MON dynstat_theta_del2           =   1.4016453140122E-01
(PID.TID 0000.0001) %MON dynstat_salt_max             =   3.7421943763875E+01
(PID.TID 0000.0001) %MON dynstat_salt_min             =   2.9780741356025E+01
(PID.TID 0000.0001) %MON dynstat_salt_mean            =   3.4716148005150E+01
(PID.TID 0000.0001) %MON dynstat_salt_sd              =   2.9586487990508E-01
(PID.TID 0000.0001) %MON dynstat_salt_del2            =   2.6065363677996E-02
(PID.TID 0000.0001) %MON dynstat_sst_max              =   2.9427701010087E+01
(PID.TID 0000.0001) %MON dynstat_sst_min              =  -1.9086728842838E+00
(PID.TID 0000.0001) %MON dynstat_sst_mean             =   1.8488658261424E+01
(PID.TID 0000.0001) %MON dynstat_sst_sd               =   8.9351308705697E+00
(PID.TID 0000.0001) %MON dynstat_sst_del2             =   2.7358661385917E-01
(PID.TID 0000.0001) %MON dynstat_sss_max              =   3.7421943763875E+01
(PID.TID 0000.0001) %MON dynstat_sss_min              =   2.9780741356025E+01
(PID.TID 0000.0001) %MON dynstat_sss_mean             =   3.4851093755782E+01
(PID.TID 0000.0001) %MON dynstat_sss_sd               =   9.6804569309469E-01
(PID.TID 0000.0001) %MON dynstat_sss_del2             =   8.2220069295035E-02
(PID.TID 0000.0001) %MON extforcing_qnet_max          =   4.3584858703613E+02
(PID.TID 0000.0001) %MON extforcing_qnet_min          =  -1.8258894068400E+02
(PID.TID 0000.0001) %MON extforcing_qnet_mean         =  -1.6581341758071E+01
(PID.TID 0000.0001) %MON extforcing_qnet_sd           =   1.1089764747903E+02
(PID.TID 0000.0001) %MON extforcing_qnet_del2         =   9.5567797647122E+00
(PID.TID 0000.0001) %MON extforcing_qsw_max           =   0.0000000000000E+00
(PID.TID 0000.0001) %MON extforcing_qsw_min           =   0.0000000000000E+00
(PID.TID 0000.0001) %MON extforcing_qsw_mean          =   0.0000000000000E+00
(PID.TID 0000.0001) %MON extforcing_qsw_sd            =   0.0000000000000E+00
(PID.TID 0000.0001) %MON extforcing_qsw_del2          =   0.0000000000000E+00
(PID.TID 0000.0001) %MON extforcing_empmr_max         =   0.0000000000000E+00
(PID.TID 0000.0001) %MON extforcing_empmr_min         =   0.0000000000000E+00
(PID.TID 0000.0001) %MON extforcing_empmr_mean        =   0.0000000000000E+00
(PID.TID 0000.0001) %MON extforcing_empmr_sd          =   0.0000000000000E+00
(PID.TID 0000.0001) %MON extforcing_empmr_del2        =   0.0000000000000E+00
(PID.TID 0000.0001) %MON extforcing_fu_max            =   2.7005842924118E-01
(PID.TID 0000.0001) %MON extforcing_fu_min            =  -1.6640676036477E-01
(PID.TID 0000.0001) %MON extforcing_fu_mean           =   1.6044045668270E-02
(PID.TID 0000.0001) %MON extforcing_fu_sd             =   9.0447607892843E-02
(PID.TID 0000.0001) %MON extforcing_fu_del2           =   7.4552819701644E-03
(PID.TID 0000.0001) %MON extforcing_fv_max            =   2.2278184220195E-01
(PID.TID 0000.0001) %MON extforcing_fv_min            =  -1.8135251626372E-01
(PID.TID 0000.0001) %MON extforcing_fv_mean           =  -5.6645916372396E-03
(PID.TID 0000.0001) %MON extforcing_fv_sd             =   4.6744950812647E-02
(PID.TID 0000.0001) %MON extforcing_fv_del2           =   4.5364874763047E-03
(PID.TID 0000.0001) %MON advcfl_uvel_max              =   2.5542312848291E-02
(PID.TID 0000.0001) %MON advcfl_vvel_max              =   1.3998546656590E-02
(PID.TID 0000.0001) %MON advcfl_wvel_max              =   1.6440867779372E-01
(PID.TID 0000.0001) %MON advcfl_W_hf_max              =   1.4608112705142E-01
(PID.TID 0000.0001) %MON pe_b_mean                    =   1.8737762263399E-04
(PID.TID 0000.0001) %MON ke_max                       =   1.5271419866243E-02
(PID.TID 0000.0001) %MON ke_mean                      =   2.8282737438901E-04
(PID.TID 0000.0001) %MON ke_vol                       =   1.3226782436723E+18
(PID.TID 0000.0001) %MON vort_r_min                   =  -4.7830858999917E-07
(PID.TID 0000.0001) %MON vort_r_max                   =   4.1117186949201E-07
(PID.TID 0000.0001) %MON vort_a_mean                  =  -2.5205769477099E-05
(PID.TID 0000.0001) %MON vort_a_sd                    =   7.3401406380174E-05
(PID.TID 0000.0001) %MON vort_p_mean                  =  -3.1758669662879E-05
(PID.TID 0000.0001) %MON vort_p_sd                    =   1.3126028966968E-04
(PID.TID 0000.0001) %MON surfExpan_theta_mean         =   3.2625026199916E-05
(PID.TID 0000.0001) %MON surfExpan_salt_mean          =  -2.5167782090173E-07
(PID.TID 0000.0001) // =======================================================
(PID.TID 0000.0001) // End MONITOR dynamic field statistics
(PID.TID 0000.0001) // =======================================================
time,SST,SSS,fu,fv,Q,E-P,i0,i1,a,b =   8.6400E+05  6.5667E-01  3.4598E+01 -3.7255E-02 -5.9422E-02  2.6555E+02  0.0000E+00    12     1  8.3333E-01  1.6667E-01
time,fu0,fu1,fu =   8.6400E+05 -4.5368E-02 -3.5633E-02 -3.7255E-02  8.333333333333334E-01  1.666666666666666E-01
 cg2d: Sum(rhs),rhsMax =  -7.68983834942283E-13  1.03748401635909E+01
(PID.TID 0000.0001)                    cg2d_init_res =    7.49246212948062E-01
(PID.TID 0000.0001)                       cg2d_iters =    25
(PID.TID 0000.0001)                         cg2d_res =    3.57303921156888E-14
(PID.TID 0000.0001) // =======================================================
(PID.TID 0000.0001) // Begin MONITOR dynamic field statistics
(PID.TID 0000.0001) // =======================================================
(PID.TID 0000.0001) %MON time_tsnumber                =                    21
(PID.TID 0000.0001) %MON time_secondsf                =   9.0720000000000E+05
(PID.TID 0000.0001) %MON dynstat_eta_max              =   1.2342786775168E+00
(PID.TID 0000.0001) %MON dynstat_eta_min              =  -1.0092650107614E+00
(PID.TID 0000.0001) %MON dynstat_eta_mean             =   7.4835240362420E-16
(PID.TID 0000.0001) %MON dynstat_eta_sd               =   3.8239514888375E-01
(PID.TID 0000.0001) %MON dynstat_eta_del2             =   1.9977980446310E-02
(PID.TID 0000.0001) %MON dynstat_uvel_max             =   1.8513094542424E-01
(PID.TID 0000.0001) %MON dynstat_uvel_min             =  -1.4899777620661E-01
(PID.TID 0000.0001) %MON dynstat_uvel_mean            =  -8.9274721036116E-03
(PID.TID 0000.0001) %MON dynstat_uvel_sd              =   1.8687000984262E-02
(PID.TID 0000.0001) %MON dynstat_uvel_del2            =   3.7032781785789E-03
(PID.TID 0000.0001) %MON dynstat_vvel_max             =   1.3018251862546E-01
(PID.TID 0000.0001) %MON dynstat_vvel_min             =  -1.5198623024385E-01
(PID.TID 0000.0001) %MON dynstat_vvel_mean            =   2.1003451970760E-03
(PID.TID 0000.0001) %MON dynstat_vvel_sd              =   1.3657379125230E-02
(PID.TID 0000.0001) %MON dynstat_vvel_del2            =   3.3911456368314E-03
(PID.TID 0000.0001) %MON dynstat_wvel_max             =   2.6803306276896E-04
(PID.TID 0000.0001) %MON dynstat_wvel_min             =  -2.7324247409691E-04
(PID.TID 0000.0001) %MON dynstat_wvel_mean            =   7.7530239883899E-22
(PID.TID 0000.0001) %MON dynstat_wvel_sd              =   2.7161174091722E-05
(PID.TID 0000.0001) %MON dynstat_wvel_del2            =   8.7529431863267E-06
(PID.TID 0000.0001) %MON dynstat_theta_max            =   2.9412599472795E+01
(PID.TID 0000.0001) %MON dynstat_theta_min            =  -2.0587175195846E+00
(PID.TID 0000.0001) %MON dynstat_theta_mean           =   3.5943486391707E+00
(PID.TID 0000.0001) %MON dynstat_theta_sd             =   4.3510365342239E+00
(PID.TID 0000.0001) %MON dynstat_theta_del2           =   1.4001615136418E-01
(PID.TID 0000.0001) %MON dynstat_salt_max             =   3.7421100462380E+01
(PID.TID 0000.0001) %MON dynstat_salt_min             =   2.9780304911953E+01
(PID.TID 0000.0001) %MON dynstat_salt_mean            =   3.4716157936092E+01
(PID.TID 0000.0001) %MON dynstat_salt_sd              =   2.9583855686311E-01
(PID.TID 0000.0001) %MON dynstat_salt_del2            =   2.6074311730323E-02
(PID.TID 0000.0001) %MON dynstat_sst_max              =   2.9412599472795E+01
(PID.TID 0000.0001) %MON dynstat_sst_min              =  -1.9087260675532E+00
(PID.TID 0000.0001) %MON dynstat_sst_mean             =   1.8490786548852E+01
(PID.TID 0000.0001) %MON dynstat_sst_sd               =   8.9296043514886E+00
(PID.TID 0000.0001) %MON dynstat_sst_del2             =   2.7338895333923E-01
(PID.TID 0000.0001) %MON dynstat_sss_max              =   3.7421100462380E+01
(PID.TID 0000.0001) %MON dynstat_sss_min              =   2.9780304911953E+01
(PID.TID 0000.0001) %MON dynstat_sss_mean             =   3.4851921950216E+01
(PID.TID 0000.0001) %MON dynstat_sss_sd               =   9.6777951121904E-01
(PID.TID 0000.0001) %MON dynstat_sss_del2             =   8.2107103469624E-02
(PID.TID 0000.0001) %MON extforcing_qnet_max          =   4.3637268066406E+02
(PID.TID 0000.0001) %MON extforcing_qnet_min          =  -1.8235535939535E+02
(PID.TID 0000.0001) %MON extforcing_qnet_mean         =  -1.6575085780159E+01
(PID.TID 0000.0001) %MON extforcing_qnet_sd           =   1.1080111313050E+02
(PID.TID 0000.0001) %MON extforcing_qnet_del2         =   9.5645523805340E+00
(PID.TID 0000.0001) %MON extforcing_qsw_max           =   0.0000000000000E+00
(PID.TID 0000.0001) %MON extforcing_qsw_min           =   0.0000000000000E+00
(PID.TID 0000.0001) %MON extforcing_qsw_mean          =   0.0000000000000E+00
(PID.TID 0000.0001) %MON extforcing_qsw_sd            =   0.0000000000000E+00
(PID.TID 0000.0001) %MON extforcing_qsw_del2          =   0.0000000000000E+00
(PID.TID 0000.0001) %MON extforcing_empmr_max         =   0.0000000000000E+00
(PID.TID 0000.0001) %MON extforcing_empmr_min         =   0.0000000000000E+00
(PID.TID 0000.0001) %MON extforcing_empmr_mean        =   0.0000000000000E+00
(PID.TID 0000.0001) %MON extforcing_empmr_sd          =   0.0000000000000E+00
(PID.TID 0000.0001) %MON extforcing_empmr_del2        =   0.0000000000000E+00
(PID.TID 0000.0001) %MON extforcing_fu_max            =   2.7009907364845E-01
(PID.TID 0000.0001) %MON extforcing_fu_min            =  -1.6681347042322E-01
(PID.TID 0000.0001) %MON extforcing_fu_mean           =   1.6040199257752E-02
(PID.TID 0000.0001) %MON extforcing_fu_sd             =   9.0490139077950E-02
(PID.TID 0000.0001) %MON extforcing_fu_del2           =   7.4710033155170E-03
(PID.TID 0000.0001) %MON extforcing_fv_max            =   2.2372179478407E-01
(PID.TID 0000.0001) %MON extforcing_fv_min            =  -1.8106018751860E-01
(PID.TID 0000.0001) %MON extforcing_fv_mean           =  -5.6277103738091E-03
(PID.TID 0000.0001) %MON extforcing_fv_sd             =   4.6864764071854E-02
(PID.TID 0000.0001) %MON extforcing_fv_del2           =   4.5601172365675E-03
(PID.TID 0000.0001) %MON advcfl_uvel_max              =   2.5888965772317E-02
(PID.TID 0000.0001) %MON advcfl_vvel_max              =   1.4764243485153E-02
(PID.TID 0000.0001) %MON advcfl_wvel_max              =   1.4902227457606E-01
(PID.TID 0000.0001) %MON advcfl_W_hf_max              =   1.3174611191330E-01
(PID.TID 0000.0001) %MON pe_b_mean                    =   1.8711385587376E-04
(PID.TID 0000.0001) %MON ke_max                       =   1.5919038251608E-02
(PID.TID 0000.0001) %MON ke_mean                      =   2.8057676633641E-04
(PID.TID 0000.0001) %MON ke_vol                       =   1.3226782436723E+18
(PID.TID 0000.0001) %MON vort_r_min                   =  -4.7193184464679E-07
(PID.TID 0000.0001) %MON vort_r_max                   =   4.1493287702265E-07
(PID.TID 0000.0001) %MON vort_a_mean                  =  -2.5205769434468E-05
(PID.TID 0000.0001) %MON vort_a_sd                    =   7.3401493047603E-05
(PID.TID 0000.0001) %MON vort_p_mean                  =  -3.1758669609165E-05
(PID.TID 0000.0001) %MON vort_p_sd                    =   1.3126060235561E-04
(PID.TID 0000.0001) %MON surfExpan_theta_mean         =   2.1431731873324E-05
(PID.TID 0000.0001) %MON surfExpan_salt_mean          =  -1.1819813131174E-06
(PID.TID 0000.0001) // =======================================================
(PID.TID 0000.0001) // End MONITOR dynamic field statistics
(PID.TID 0000.0001) // =======================================================
time,SST,SSS,fu,fv,Q,E-P,i0,i1,a,b =   9.0720E+05  6.8684E-01  3.4609E+01 -3.7093E-02 -5.9205E-02  2.6557E+02  0.0000E+00    12     1  8.5000E-01  1.5000E-01
time,fu0,fu1,fu =   9.0720E+05 -4.5368E-02 -3.5633E-02 -3.7093E-02  8.500000000000000E-01  1.500000000000000E-01
 cg2d: Sum(rhs),rhsMax =  -8.32259608452013E-13  1.11482726022290E+01
(PID.TID 0000.0001)                    cg2d_init_res =    6.80873765730004E-01
(PID.TID 0000.0001)                       cg2d_iters =    25
(PID.TID 0000.0001)                         cg2d_res =    3.60880926304034E-14
(PID.TID 0000.0001) // =======================================================
(PID.TID 0000.0001) // Begin MONITOR dynamic field statistics
(PID.TID 0000.0001) // =======================================================
(PID.TID 0000.0001) %MON time_tsnumber                =                    22
(PID.TID 0000.0001) %MON time_secondsf                =   9.5040000000000E+05
(PID.TID 0000.0001) %MON dynstat_eta_max              =   1.3229570686151E+00
(PID.TID 0000.0001) %MON dynstat_eta_min              =  -9.6024423788369E-01
(PID.TID 0000.0001) %MON dynstat_eta_mean             =   6.5597400561040E-16
(PID.TID 0000.0001) %MON dynstat_eta_sd               =   3.8114691699952E-01
(PID.TID 0000.0001) %MON dynstat_eta_del2             =   1.9924757068992E-02
(PID.TID 0000.0001) %MON dynstat_uvel_max             =   1.8610299590388E-01
(PID.TID 0000.0001) %MON dynstat_uvel_min             =  -1.5369345180001E-01
(PID.TID 0000.0001) %MON dynstat_uvel_mean            =  -8.3633528245350E-03
(PID.TID 0000.0001) %MON dynstat_uvel_sd              =   1.8743862312247E-02
(PID.TID 0000.0001) %MON dynstat_uvel_del2            =   3.7120534136704E-03
(PID.TID 0000.0001) %MON dynstat_vvel_max             =   1.3293272108291E-01
(PID.TID 0000.0001) %MON dynstat_vvel_min             =  -1.5643768559233E-01
(PID.TID 0000.0001) %MON dynstat_vvel_mean            =   2.0168478917690E-03
(PID.TID 0000.0001) %MON dynstat_vvel_sd              =   1.3691395484417E-02
(PID.TID 0000.0001) %MON dynstat_vvel_del2            =   3.3966833787192E-03
(PID.TID 0000.0001) %MON dynstat_wvel_max             =   2.7040290016293E-04
(PID.TID 0000.0001) %MON dynstat_wvel_min             =  -2.6639059596599E-04
(PID.TID 0000.0001) %MON dynstat_wvel_mean            =   3.6778208997186E-22
(PID.TID 0000.0001) %MON dynstat_wvel_sd              =   2.6591334245814E-05
(PID.TID 0000.0001) %MON dynstat_wvel_del2            =   8.6857282987765E-06
(PID.TID 0000.0001) %MON dynstat_theta_max            =   2.9394749226497E+01
(PID.TID 0000.0001) %MON dynstat_theta_min            =  -2.0506719785405E+00
(PID.TID 0000.0001) %MON dynstat_theta_mean           =   3.5942235546443E+00
(PID.TID 0000.0001) %MON dynstat_theta_sd             =   4.3497736475239E+00
(PID.TID 0000.0001) %MON dynstat_theta_del2           =   1.3991039914395E-01
(PID.TID 0000.0001) %MON dynstat_salt_max             =   3.7420233412547E+01
(PID.TID 0000.0001) %MON dynstat_salt_min             =   2.9780093044895E+01
(PID.TID 0000.0001) %MON dynstat_salt_mean            =   3.4716177425292E+01
(PID.TID 0000.0001) %MON dynstat_salt_sd              =   2.9581504990859E-01
(PID.TID 0000.0001) %MON dynstat_salt_del2            =   2.6086160092423E-02
(PID.TID 0000.0001) %MON dynstat_sst_max              =   2.9394749226497E+01
(PID.TID 0000.0001) %MON dynstat_sst_min              =  -1.9087246557244E+00
(PID.TID 0000.0001) %MON dynstat_sst_mean             =   1.8493197359332E+01
(PID.TID 0000.0001) %MON dynstat_sst_sd               =   8.9257054876221E+00
(PID.TID 0000.0001) %MON dynstat_sst_del2             =   2.7337287697881E-01
(PID.TID 0000.0001) %MON dynstat_sss_max              =   3.7420233412547E+01
(PID.TID 0000.0001) %MON dynstat_sss_min              =   2.9780093044895E+01
(PID.TID 0000.0001) %MON dynstat_sss_mean             =   3.4852743167434E+01
(PID.TID 0000.0001) %MON dynstat_sss_sd               =   9.6751923389395E-01
(PID.TID 0000.0001) %MON dynstat_sss_del2             =   8.1997663699109E-02
(PID.TID 0000.0001) %MON extforcing_qnet_max          =   4.3689677429199E+02
(PID.TID 0000.0001) %MON extforcing_qnet_min          =  -1.8212177810669E+02
(PID.TID 0000.0001) %MON extforcing_qnet_mean         =  -1.6568829802248E+01
(PID.TID 0000.0001) %MON extforcing_qnet_sd           =   1.1070524838440E+02
(PID.TID 0000.0001) %MON extforcing_qnet_del2         =   9.5728012133237E+00
(PID.TID 0000.0001) %MON extforcing_qsw_max           =   0.0000000000000E+00
(PID.TID 0000.0001) %MON extforcing_qsw_min           =   0.0000000000000E+00
(PID.TID 0000.0001) %MON extforcing_qsw_mean          =   0.0000000000000E+00
(PID.TID 0000.0001) %MON extforcing_qsw_sd            =   0.0000000000000E+00
(PID.TID 0000.0001) %MON extforcing_qsw_del2          =   0.0000000000000E+00
(PID.TID 0000.0001) %MON extforcing_empmr_max         =   0.0000000000000E+00
(PID.TID 0000.0001) %MON extforcing_empmr_min         =   0.0000000000000E+00
(PID.TID 0000.0001) %MON extforcing_empmr_mean        =   0.0000000000000E+00
(PID.TID 0000.0001) %MON extforcing_empmr_sd          =   0.0000000000000E+00
(PID.TID 0000.0001) %MON extforcing_empmr_del2        =   0.0000000000000E+00
(PID.TID 0000.0001) %MON extforcing_fu_max            =   2.7013971805573E-01
(PID.TID 0000.0001) %MON extforcing_fu_min            =  -1.6722018048167E-01
(PID.TID 0000.0001) %MON extforcing_fu_mean           =   1.6036352847233E-02
(PID.TID 0000.0001) %MON extforcing_fu_sd             =   9.0535354587419E-02
(PID.TID 0000.0001) %MON extforcing_fu_del2           =   7.4883428479521E-03
(PID.TID 0000.0001) %MON extforcing_fv_max            =   2.2466174736619E-01
(PID.TID 0000.0001) %MON extforcing_fv_min            =  -1.8076785877347E-01
(PID.TID 0000.0001) %MON extforcing_fv_mean           =  -5.5908291103787E-03
(PID.TID 0000.0001) %MON extforcing_fv_sd             =   4.6988037904400E-02
(PID.TID 0000.0001) %MON extforcing_fv_del2           =   4.5847159374167E-03
(PID.TID 0000.0001) %MON advcfl_uvel_max              =   2.6024898646957E-02
(PID.TID 0000.0001) %MON advcfl_vvel_max              =   1.5196666675877E-02
(PID.TID 0000.0001) %MON advcfl_wvel_max              =   1.5170550802747E-01
(PID.TID 0000.0001) %MON advcfl_W_hf_max              =   1.1815909212987E-01
(PID.TID 0000.0001) %MON pe_b_mean                    =   1.8589427826937E-04
(PID.TID 0000.0001) %MON ke_max                       =   1.6454118546819E-02
(PID.TID 0000.0001) %MON ke_mean                      =   2.7737560633947E-04
(PID.TID 0000.0001) %MON ke_vol                       =   1.3226782436723E+18
(PID.TID 0000.0001) %MON vort_r_min                   =  -4.5190260046341E-07
(PID.TID 0000.0001) %MON vort_r_max                   =   4.1431763854960E-07
(PID.TID 0000.0001) %MON vort_a_mean                  =  -2.5205769406096E-05
(PID.TID 0000.0001) %MON vort_a_sd                    =   7.3401593247960E-05
(PID.TID 0000.0001) %MON vort_p_mean                  =  -3.1758669573417E-05
(PID.TID 0000.0001) %MON vort_p_sd                    =   1.3126094910033E-04
(PID.TID 0000.0001) %MON surfExpan_theta_mean         =   1.1639296092427E-05
(PID.TID 0000.0001) %MON surfExpan_salt_mean          =  -1.9635634566484E-06
(PID.TID 0000.0001) // =======================================================
(PID.TID 0000.0001) // End MONITOR dynamic field statistics
(PID.TID 0000.0001) // =======================================================
time,SST,SSS,fu,fv,Q,E-P,i0,i1,a,b =   9.5040E+05  7.1702E-01  3.4621E+01 -3.6931E-02 -5.8989E-02  2.6559E+02  0.0000E+00    12     1  8.6667E-01  1.3333E-01
time,fu0,fu1,fu =   9.5040E+05 -4.5368E-02 -3.5633E-02 -3.6931E-02  8.666666666666667E-01  1.333333333333333E-01
 cg2d: Sum(rhs),rhsMax =  -7.50698114782011E-13  1.17644190526986E+01
(PID.TID 0000.0001)                    cg2d_init_res =    6.28019644311734E-01
(PID.TID 0000.0001)                       cg2d_iters =    25
(PID.TID 0000.0001)                         cg2d_res =    3.54869773072108E-14
(PID.TID 0000.0001) // =======================================================
(PID.TID 0000.0001) // Begin MONITOR dynamic field statistics
(PID.TID 0000.0001) // =======================================================
(PID.TID 0000.0001) %MON time_tsnumber                =                    23
(PID.TID 0000.0001) %MON time_secondsf                =   9.9360000000000E+05
(PID.TID 0000.0001) %MON dynstat_eta_max              =   1.3931227299062E+00
(PID.TID 0000.0001) %MON dynstat_eta_min              =  -9.1814514810233E-01
(PID.TID 0000.0001) %MON dynstat_eta_mean             =   7.7807211877428E-16
(PID.TID 0000.0001) %MON dynstat_eta_sd               =   3.7915611603935E-01
(PID.TID 0000.0001) %MON dynstat_eta_del2             =   1.9912893905439E-02
(PID.TID 0000.0001) %MON dynstat_uvel_max             =   1.8555495051103E-01
(PID.TID 0000.0001) %MON dynstat_uvel_min             =  -1.5867793694988E-01
(PID.TID 0000.0001) %MON dynstat_uvel_mean            =  -7.7554177869679E-03
(PID.TID 0000.0001) %MON dynstat_uvel_sd              =   1.8733644338300E-02
(PID.TID 0000.0001) %MON dynstat_uvel_del2            =   3.7240077935522E-03
(PID.TID 0000.0001) %MON dynstat_vvel_max             =   1.3681399243139E-01
(PID.TID 0000.0001) %MON dynstat_vvel_min             =  -1.5734609907783E-01
(PID.TID 0000.0001) %MON dynstat_vvel_mean            =   2.0014652461382E-03
(PID.TID 0000.0001) %MON dynstat_vvel_sd              =   1.3748981117331E-02
(PID.TID 0000.0001) %MON dynstat_vvel_del2            =   3.4132484573963E-03
(PID.TID 0000.0001) %MON dynstat_wvel_max             =   2.6962045119186E-04
(PID.TID 0000.0001) %MON dynstat_wvel_min             =  -2.5906171740196E-04
(PID.TID 0000.0001) %MON dynstat_wvel_mean            =   5.2317974250604E-22
(PID.TID 0000.0001) %MON dynstat_wvel_sd              =   2.6198650606637E-05
(PID.TID 0000.0001) %MON dynstat_wvel_del2            =   8.7171510850029E-06
(PID.TID 0000.0001) %MON dynstat_theta_max            =   2.9374534050787E+01
(PID.TID 0000.0001) %MON dynstat_theta_min            =  -2.0401518494617E+00
(PID.TID 0000.0001) %MON dynstat_theta_mean           =   3.5941995021979E+00
(PID.TID 0000.0001) %MON dynstat_theta_sd             =   4.3488749326469E+00
(PID.TID 0000.0001) %MON dynstat_theta_del2           =   1.3982453026925E-01
(PID.TID 0000.0001) %MON dynstat_salt_max             =   3.7419367191506E+01
(PID.TID 0000.0001) %MON dynstat_salt_min             =   2.9780174853103E+01
(PID.TID 0000.0001) %MON dynstat_salt_mean            =   3.4716204691533E+01
(PID.TID 0000.0001) %MON dynstat_salt_sd              =   2.9579343244814E-01
(PID.TID 0000.0001) %MON dynstat_salt_del2            =   2.6094356651063E-02
(PID.TID 0000.0001) %MON dynstat_sst_max              =   2.9374534050787E+01
(PID.TID 0000.0001) %MON dynstat_sst_min              =  -1.9086766266052E+00
(PID.TID 0000.0001) %MON dynstat_sst_mean             =   1.8495738303588E+01
(PID.TID 0000.0001) %MON dynstat_sst_sd               =   8.9233464688850E+00
(PID.TID 0000.0001) %MON dynstat_sst_del2             =   2.7321062510144E-01
(PID.TID 0000.0001) %MON dynstat_sss_max              =   3.7419367191506E+01
(PID.TID 0000.0001) %MON dynstat_sss_min              =   2.9780174853103E+01
(PID.TID 0000.0001) %MON dynstat_sss_mean             =   3.4853470489141E+01
(PID.TID 0000.0001) %MON dynstat_sss_sd               =   9.6712943064632E-01
(PID.TID 0000.0001) %MON dynstat_sss_del2             =   8.1871829932612E-02
(PID.TID 0000.0001) %MON extforcing_qnet_max          =   4.3742086791992E+02
(PID.TID 0000.0001) %MON extforcing_qnet_min          =  -1.8188829345703E+02
(PID.TID 0000.0001) %MON extforcing_qnet_mean         =  -1.6562573824336E+01
(PID.TID 0000.0001) %MON extforcing_qnet_sd           =   1.1061005498176E+02
(PID.TID 0000.0001) %MON extforcing_qnet_del2         =   9.5812729134055E+00
(PID.TID 0000.0001) %MON extforcing_qsw_max           =   0.0000000000000E+00
(PID.TID 0000.0001) %MON extforcing_qsw_min           =   0.0000000000000E+00
(PID.TID 0000.0001) %MON extforcing_qsw_mean          =   0.0000000000000E+00
(PID.TID 0000.0001) %MON extforcing_qsw_sd            =   0.0000000000000E+00
(PID.TID 0000.0001) %MON extforcing_qsw_del2          =   0.0000000000000E+00
(PID.TID 0000.0001) %MON extforcing_empmr_max         =   0.0000000000000E+00
(PID.TID 0000.0001) %MON extforcing_empmr_min         =   0.0000000000000E+00
(PID.TID 0000.0001) %MON extforcing_empmr_mean        =   0.0000000000000E+00
(PID.TID 0000.0001) %MON extforcing_empmr_sd          =   0.0000000000000E+00
(PID.TID 0000.0001) %MON extforcing_empmr_del2        =   0.0000000000000E+00
(PID.TID 0000.0001) %MON extforcing_fu_max            =   2.7018036246300E-01
(PID.TID 0000.0001) %MON extforcing_fu_min            =  -1.6762689054012E-01
(PID.TID 0000.0001) %MON extforcing_fu_mean           =   1.6032506436715E-02
(PID.TID 0000.0001) %MON extforcing_fu_sd             =   9.0583250401530E-02
(PID.TID 0000.0001) %MON extforcing_fu_del2           =   7.5065613175187E-03
(PID.TID 0000.0001) %MON extforcing_fv_max            =   2.2560169994831E-01
(PID.TID 0000.0001) %MON extforcing_fv_min            =  -1.8047553002834E-01
(PID.TID 0000.0001) %MON extforcing_fv_mean           =  -5.5539478469483E-03
(PID.TID 0000.0001) %MON extforcing_fv_sd             =   4.7114745146942E-02
(PID.TID 0000.0001) %MON extforcing_fv_del2           =   4.6102195979725E-03
(PID.TID 0000.0001) %MON advcfl_uvel_max              =   2.5948259226223E-02
(PID.TID 0000.0001) %MON advcfl_vvel_max              =   1.5284911761393E-02
(PID.TID 0000.0001) %MON advcfl_wvel_max              =   1.6668820220817E-01
(PID.TID 0000.0001) %MON advcfl_W_hf_max              =   1.2852525713851E-01
(PID.TID 0000.0001) %MON pe_b_mean                    =   1.8395742926495E-04
(PID.TID 0000.0001) %MON ke_max                       =   1.6881964293134E-02
(PID.TID 0000.0001) %MON ke_mean                      =   2.7343137787686E-04
(PID.TID 0000.0001) %MON ke_vol                       =   1.3226782436723E+18
(PID.TID 0000.0001) %MON vort_r_min                   =  -4.1901442208891E-07
(PID.TID 0000.0001) %MON vort_r_max                   =   4.0916704113382E-07
(PID.TID 0000.0001) %MON vort_a_mean                  =  -2.5205769392673E-05
(PID.TID 0000.0001) %MON vort_a_sd                    =   7.3401703776927E-05
(PID.TID 0000.0001) %MON vort_p_mean                  =  -3.1758669556504E-05
(PID.TID 0000.0001) %MON vort_p_sd                    =   1.3126131421871E-04
(PID.TID 0000.0001) %MON surfExpan_theta_mean         =   3.3960924185574E-06
(PID.TID 0000.0001) %MON surfExpan_salt_mean          =  -2.5821396508721E-06
(PID.TID 0000.0001) // =======================================================
(PID.TID 0000.0001) // End MONITOR dynamic field statistics
(PID.TID 0000.0001) // =======================================================
time,SST,SSS,fu,fv,Q,E-P,i0,i1,a,b =   9.9360E+05  7.4719E-01  3.4633E+01 -3.6769E-02 -5.8772E-02  2.6561E+02  0.0000E+00    12     1  8.8333E-01  1.1667E-01
time,fu0,fu1,fu =   9.9360E+05 -4.5368E-02 -3.5633E-02 -3.6769E-02  8.833333333333333E-01  1.166666666666667E-01
 cg2d: Sum(rhs),rhsMax =  -6.53890136481650E-13  1.21959720875421E+01
(PID.TID 0000.0001)                    cg2d_init_res =    5.89114216993731E-01
(PID.TID 0000.0001)                       cg2d_iters =    25
(PID.TID 0000.0001)                         cg2d_res =    3.41698673851955E-14
(PID.TID 0000.0001) // =======================================================
(PID.TID 0000.0001) // Begin MONITOR dynamic field statistics
(PID.TID 0000.0001) // =======================================================
(PID.TID 0000.0001) %MON time_tsnumber                =                    24
(PID.TID 0000.0001) %MON time_secondsf                =   1.0368000000000E+06
(PID.TID 0000.0001) %MON dynstat_eta_max              =   1.4416790957046E+00
(PID.TID 0000.0001) %MON dynstat_eta_min              =  -8.9921749248368E-01
(PID.TID 0000.0001) %MON dynstat_eta_mean             =   9.2816711632069E-16
(PID.TID 0000.0001) %MON dynstat_eta_sd               =   3.7663517058379E-01
(PID.TID 0000.0001) %MON dynstat_eta_del2             =   1.9913123673166E-02
(PID.TID 0000.0001) %MON dynstat_uvel_max             =   1.8349484744226E-01
(PID.TID 0000.0001) %MON dynstat_uvel_min             =  -1.6032076990394E-01
(PID.TID 0000.0001) %MON dynstat_uvel_mean            =  -7.1215924545414E-03
(PID.TID 0000.0001) %MON dynstat_uvel_sd              =   1.8660889544228E-02
(PID.TID 0000.0001) %MON dynstat_uvel_del2            =   3.7306155889886E-03
(PID.TID 0000.0001) %MON dynstat_vvel_max             =   1.4003854759670E-01
(PID.TID 0000.0001) %MON dynstat_vvel_min             =  -1.5921316724466E-01
(PID.TID 0000.0001) %MON dynstat_vvel_mean            =   2.0505352113647E-03
(PID.TID 0000.0001) %MON dynstat_vvel_sd              =   1.3825771972380E-02
(PID.TID 0000.0001) %MON dynstat_vvel_del2            =   3.4418651722269E-03
(PID.TID 0000.0001) %MON dynstat_wvel_max             =   2.6583327991177E-04
(PID.TID 0000.0001) %MON dynstat_wvel_min             =  -2.5142942386063E-04
(PID.TID 0000.0001) %MON dynstat_wvel_mean            =  -1.5314983409162E-22
(PID.TID 0000.0001) %MON dynstat_wvel_sd              =   2.5968952749768E-05
(PID.TID 0000.0001) %MON dynstat_wvel_del2            =   8.8036670255021E-06
(PID.TID 0000.0001) %MON dynstat_theta_max            =   2.9352496265712E+01
(PID.TID 0000.0001) %MON dynstat_theta_min            =  -2.0275910798610E+00
(PID.TID 0000.0001) %MON dynstat_theta_mean           =   3.5942580108726E+00
(PID.TID 0000.0001) %MON dynstat_theta_sd             =   4.3483212083542E+00
(PID.TID 0000.0001) %MON dynstat_theta_del2           =   1.3975967629910E-01
(PID.TID 0000.0001) %MON dynstat_salt_max             =   3.7418506699243E+01
(PID.TID 0000.0001) %MON dynstat_salt_min             =   2.9780604295420E+01
(PID.TID 0000.0001) %MON dynstat_salt_mean            =   3.4716237806428E+01
(PID.TID 0000.0001) %MON dynstat_salt_sd              =   2.9577334469643E-01
(PID.TID 0000.0001) %MON dynstat_salt_del2            =   2.6104720799351E-02
(PID.TID 0000.0001) %MON dynstat_sst_max              =   2.9352496265712E+01
(PID.TID 0000.0001) %MON dynstat_sst_min              =  -1.9085922022635E+00
(PID.TID 0000.0001) %MON dynstat_sst_mean             =   1.8498605355298E+01
(PID.TID 0000.0001) %MON dynstat_sst_sd               =   8.9222945023723E+00
(PID.TID 0000.0001) %MON dynstat_sst_del2             =   2.7338606644462E-01
(PID.TID 0000.0001) %MON dynstat_sss_max              =   3.7418506699243E+01
(PID.TID 0000.0001) %MON dynstat_sss_min              =   2.9780604295420E+01
(PID.TID 0000.0001) %MON dynstat_sss_mean             =   3.4854142354397E+01
(PID.TID 0000.0001) %MON dynstat_sss_sd               =   9.6679782713538E-01
(PID.TID 0000.0001) %MON dynstat_sss_del2             =   8.1804568991798E-02
(PID.TID 0000.0001) %MON extforcing_qnet_max          =   4.3794496154785E+02
(PID.TID 0000.0001) %MON extforcing_qnet_min          =  -1.8181792144775E+02
(PID.TID 0000.0001) %MON extforcing_qnet_mean         =  -1.6556317846425E+01
(PID.TID 0000.0001) %MON extforcing_qnet_sd           =   1.1051553465738E+02
(PID.TID 0000.0001) %MON extforcing_qnet_del2         =   9.5908814584780E+00
(PID.TID 0000.0001) %MON extforcing_qsw_max           =   0.0000000000000E+00
(PID.TID 0000.0001) %MON extforcing_qsw_min           =   0.0000000000000E+00
(PID.TID 0000.0001) %MON extforcing_qsw_mean          =   0.0000000000000E+00
(PID.TID 0000.0001) %MON extforcing_qsw_sd            =   0.0000000000000E+00
(PID.TID 0000.0001) %MON extforcing_qsw_del2          =   0.0000000000000E+00
(PID.TID 0000.0001) %MON extforcing_empmr_max         =   0.0000000000000E+00
(PID.TID 0000.0001) %MON extforcing_empmr_min         =   0.0000000000000E+00
(PID.TID 0000.0001) %MON extforcing_empmr_mean        =   0.0000000000000E+00
(PID.TID 0000.0001) %MON extforcing_empmr_sd          =   0.0000000000000E+00
(PID.TID 0000.0001) %MON extforcing_empmr_del2        =   0.0000000000000E+00
(PID.TID 0000.0001) %MON extforcing_fu_max            =   2.7022100687027E-01
(PID.TID 0000.0001) %MON extforcing_fu_min            =  -1.6803360059857E-01
(PID.TID 0000.0001) %MON extforcing_fu_mean           =   1.6028660026196E-02
(PID.TID 0000.0001) %MON extforcing_fu_sd             =   9.0633822271029E-02
(PID.TID 0000.0001) %MON extforcing_fu_del2           =   7.5259031036095E-03
(PID.TID 0000.0001) %MON extforcing_fv_max            =   2.2654165253043E-01
(PID.TID 0000.0001) %MON extforcing_fv_min            =  -1.8018320128322E-01
(PID.TID 0000.0001) %MON extforcing_fv_mean           =  -5.5170665835180E-03
(PID.TID 0000.0001) %MON extforcing_fv_sd             =   4.7244858175025E-02
(PID.TID 0000.0001) %MON extforcing_fv_del2           =   4.6375341493345E-03
(PID.TID 0000.0001) %MON advcfl_uvel_max              =   2.5660171582569E-02
(PID.TID 0000.0001) %MON advcfl_vvel_max              =   1.5466282461715E-02
(PID.TID 0000.0001) %MON advcfl_wvel_max              =   1.7491030257681E-01
(PID.TID 0000.0001) %MON advcfl_W_hf_max              =   1.3493500907505E-01
(PID.TID 0000.0001) %MON pe_b_mean                    =   1.8151935724702E-04
(PID.TID 0000.0001) %MON ke_max                       =   1.7208166420572E-02
(PID.TID 0000.0001) %MON ke_mean                      =   2.6895132065091E-04
(PID.TID 0000.0001) %MON ke_vol                       =   1.3226782436723E+18
(PID.TID 0000.0001) %MON vort_r_min                   =  -4.6523359837492E-07
(PID.TID 0000.0001) %MON vort_r_max                   =   4.1900246743164E-07
(PID.TID 0000.0001) %MON vort_a_mean                  =  -2.5205769393213E-05
(PID.TID 0000.0001) %MON vort_a_sd                    =   7.3401821488796E-05
(PID.TID 0000.0001) %MON vort_p_mean                  =  -3.1758669557184E-05
(PID.TID 0000.0001) %MON vort_p_sd                    =   1.3126168417762E-04
(PID.TID 0000.0001) %MON surfExpan_theta_mean         =  -3.2115974460795E-06
(PID.TID 0000.0001) %MON surfExpan_salt_mean          =  -3.0284187527894E-06
(PID.TID 0000.0001) // =======================================================
(PID.TID 0000.0001) // End MONITOR dynamic field statistics
(PID.TID 0000.0001) // =======================================================
time,SST,SSS,fu,fv,Q,E-P,i0,i1,a,b =   1.0368E+06  7.7737E-01  3.4644E+01 -3.6606E-02 -5.8556E-02  2.6564E+02  0.0000E+00    12     1  9.0000E-01  1.0000E-01
time,fu0,fu1,fu =   1.0368E+06 -4.5368E-02 -3.5633E-02 -3.6606E-02  9.000000000000000E-01  9.999999999999998E-02
 cg2d: Sum(rhs),rhsMax =  -8.53086698504590E-13  1.24221987652398E+01
(PID.TID 0000.0001)                    cg2d_init_res =    5.64309106653577E-01
(PID.TID 0000.0001)                       cg2d_iters =    25
(PID.TID 0000.0001)                         cg2d_res =    3.23868712407228E-14
(PID.TID 0000.0001) // =======================================================
(PID.TID 0000.0001) // Begin MONITOR dynamic field statistics
(PID.TID 0000.0001) // =======================================================
(PID.TID 0000.0001) %MON time_tsnumber                =                    25
(PID.TID 0000.0001) %MON time_secondsf                =   1.0800000000000E+06
(PID.TID 0000.0001) %MON dynstat_eta_max              =   1.4662869092030E+00
(PID.TID 0000.0001) %MON dynstat_eta_min              =  -8.9739590105808E-01
(PID.TID 0000.0001) %MON dynstat_eta_mean             =   6.8980799628953E-16
(PID.TID 0000.0001) %MON dynstat_eta_sd               =   3.7377975343846E-01
(PID.TID 0000.0001) %MON dynstat_eta_del2             =   1.9942056124528E-02
(PID.TID 0000.0001) %MON dynstat_uvel_max             =   1.8173283252982E-01
(PID.TID 0000.0001) %MON dynstat_uvel_min             =  -1.6295969102535E-01
(PID.TID 0000.0001) %MON dynstat_uvel_mean            =  -6.4786873675488E-03
(PID.TID 0000.0001) %MON dynstat_uvel_sd              =   1.8529420250575E-02
(PID.TID 0000.0001) %MON dynstat_uvel_del2            =   3.7348716085359E-03
(PID.TID 0000.0001) %MON dynstat_vvel_max             =   1.4265441370894E-01
(PID.TID 0000.0001) %MON dynstat_vvel_min             =  -1.6751896158947E-01
(PID.TID 0000.0001) %MON dynstat_vvel_mean            =   2.1578251257219E-03
(PID.TID 0000.0001) %MON dynstat_vvel_sd              =   1.3919413798296E-02
(PID.TID 0000.0001) %MON dynstat_vvel_del2            =   3.4731335690276E-03
(PID.TID 0000.0001) %MON dynstat_wvel_max             =   2.5929784565560E-04
(PID.TID 0000.0001) %MON dynstat_wvel_min             =  -2.4362812813482E-04
(PID.TID 0000.0001) %MON dynstat_wvel_mean            =  -1.0664522294578E-22
(PID.TID 0000.0001) %MON dynstat_wvel_sd              =   2.5881189253490E-05
(PID.TID 0000.0001) %MON dynstat_wvel_del2            =   8.9210358929472E-06
(PID.TID 0000.0001) %MON dynstat_theta_max            =   2.9329304920465E+01
(PID.TID 0000.0001) %MON dynstat_theta_min            =  -2.0135651124546E+00
(PID.TID 0000.0001) %MON dynstat_theta_mean           =   3.5943800164882E+00
(PID.TID 0000.0001) %MON dynstat_theta_sd             =   4.3480849484798E+00
(PID.TID 0000.0001) %MON dynstat_theta_del2           =   1.3976905855740E-01
(PID.TID 0000.0001) %MON dynstat_salt_max             =   3.7417643726097E+01
(PID.TID 0000.0001) %MON dynstat_salt_min             =   2.9781418535343E+01
(PID.TID 0000.0001) %MON dynstat_salt_mean            =   3.4716274766525E+01
(PID.TID 0000.0001) %MON dynstat_salt_sd              =   2.9575352883077E-01
(PID.TID 0000.0001) %MON dynstat_salt_del2            =   2.6118930639419E-02
(PID.TID 0000.0001) %MON dynstat_sst_max              =   2.9329304920465E+01
(PID.TID 0000.0001) %MON dynstat_sst_min              =  -1.9084823255005E+00
(PID.TID 0000.0001) %MON dynstat_sst_mean             =   1.8501660745798E+01
(PID.TID 0000.0001) %MON dynstat_sst_sd               =   8.9225947739094E+00
(PID.TID 0000.0001) %MON dynstat_sst_del2             =   2.7360413839534E-01
(PID.TID 0000.0001) %MON dynstat_sss_max              =   3.7417643726097E+01
(PID.TID 0000.0001) %MON dynstat_sss_min              =   2.9781418535343E+01
(PID.TID 0000.0001) %MON dynstat_sss_mean             =   3.4854737105601E+01
(PID.TID 0000.0001) %MON dynstat_sss_sd               =   9.6646505861766E-01
(PID.TID 0000.0001) %MON dynstat_sss_del2             =   8.1787015641447E-02
(PID.TID 0000.0001) %MON extforcing_qnet_max          =   4.3846905517578E+02
(PID.TID 0000.0001) %MON extforcing_qnet_min          =  -1.8174754943848E+02
(PID.TID 0000.0001) %MON extforcing_qnet_mean         =  -1.6550061868513E+01
(PID.TID 0000.0001) %MON extforcing_qnet_sd           =   1.1042168913970E+02
(PID.TID 0000.0001) %MON extforcing_qnet_del2         =   9.6008090278912E+00
(PID.TID 0000.0001) %MON extforcing_qsw_max           =   0.0000000000000E+00
(PID.TID 0000.0001) %MON extforcing_qsw_min           =   0.0000000000000E+00
(PID.TID 0000.0001) %MON extforcing_qsw_mean          =   0.0000000000000E+00
(PID.TID 0000.0001) %MON extforcing_qsw_sd            =   0.0000000000000E+00
(PID.TID 0000.0001) %MON extforcing_qsw_del2          =   0.0000000000000E+00
(PID.TID 0000.0001) %MON extforcing_empmr_max         =   0.0000000000000E+00
(PID.TID 0000.0001) %MON extforcing_empmr_min         =   0.0000000000000E+00
(PID.TID 0000.0001) %MON extforcing_empmr_mean        =   0.0000000000000E+00
(PID.TID 0000.0001) %MON extforcing_empmr_sd          =   0.0000000000000E+00
(PID.TID 0000.0001) %MON extforcing_empmr_del2        =   0.0000000000000E+00
(PID.TID 0000.0001) %MON extforcing_fu_max            =   2.7026165127754E-01
(PID.TID 0000.0001) %MON extforcing_fu_min            =  -1.6844031065702E-01
(PID.TID 0000.0001) %MON extforcing_fu_mean           =   1.6024813615678E-02
(PID.TID 0000.0001) %MON extforcing_fu_sd             =   9.0687065718989E-02
(PID.TID 0000.0001) %MON extforcing_fu_del2           =   7.5468441057421E-03
(PID.TID 0000.0001) %MON extforcing_fv_max            =   2.2748160511255E-01
(PID.TID 0000.0001) %MON extforcing_fv_min            =  -1.7989087253809E-01
(PID.TID 0000.0001) %MON extforcing_fv_mean           =  -5.4801853200875E-03
(PID.TID 0000.0001) %MON extforcing_fv_sd             =   4.7378348929193E-02
(PID.TID 0000.0001) %MON extforcing_fv_del2           =   4.6665786244369E-03
(PID.TID 0000.0001) %MON advcfl_uvel_max              =   2.5164368988722E-02
(PID.TID 0000.0001) %MON advcfl_vvel_max              =   1.6273123777849E-02
(PID.TID 0000.0001) %MON advcfl_wvel_max              =   1.7566548918433E-01
(PID.TID 0000.0001) %MON advcfl_W_hf_max              =   1.3559069683824E-01
(PID.TID 0000.0001) %MON pe_b_mean                    =   1.7877745336999E-04
(PID.TID 0000.0001) %MON ke_max                       =   1.7437008949901E-02
(PID.TID 0000.0001) %MON ke_mean                      =   2.6412671950321E-04
(PID.TID 0000.0001) %MON ke_vol                       =   1.3226782436723E+18
(PID.TID 0000.0001) %MON vort_r_min                   =  -5.0717258302958E-07
(PID.TID 0000.0001) %MON vort_r_max                   =   4.1022389964990E-07
(PID.TID 0000.0001) %MON vort_a_mean                  =  -2.5205769405415E-05
(PID.TID 0000.0001) %MON vort_a_sd                    =   7.3401943371335E-05
(PID.TID 0000.0001) %MON vort_p_mean                  =  -3.1758669572559E-05
(PID.TID 0000.0001) %MON vort_p_sd                    =   1.3126204791461E-04
(PID.TID 0000.0001) %MON surfExpan_theta_mean         =  -8.1527781062166E-06
(PID.TID 0000.0001) %MON surfExpan_salt_mean          =  -3.2956381099514E-06
(PID.TID 0000.0001) // =======================================================
(PID.TID 0000.0001) // End MONITOR dynamic field statistics
(PID.TID 0000.0001) // =======================================================
time,SST,SSS,fu,fv,Q,E-P,i0,i1,a,b =   1.0800E+06  8.0755E-01  3.4656E+01 -3.6444E-02 -5.8339E-02  2.6566E+02  0.0000E+00    12     1  9.1667E-01  8.3333E-02
time,fu0,fu1,fu =   1.0800E+06 -4.5368E-02 -3.5633E-02 -3.6444E-02  9.166666666666666E-01  8.333333333333337E-02
 cg2d: Sum(rhs),rhsMax =  -9.86417544868168E-13  1.24298971531140E+01
(PID.TID 0000.0001)                    cg2d_init_res =    5.54788004372002E-01
(PID.TID 0000.0001)                       cg2d_iters =    25
(PID.TID 0000.0001)                         cg2d_res =    3.04071829550847E-14
(PID.TID 0000.0001) // =======================================================
(PID.TID 0000.0001) // Begin MONITOR dynamic field statistics
(PID.TID 0000.0001) // =======================================================
(PID.TID 0000.0001) %MON time_tsnumber                =                    26
(PID.TID 0000.0001) %MON time_secondsf                =   1.1232000000000E+06
(PID.TID 0000.0001) %MON dynstat_eta_max              =   1.4654734647844E+00
(PID.TID 0000.0001) %MON dynstat_eta_min              =  -9.1626495864867E-01
(PID.TID 0000.0001) %MON dynstat_eta_mean             =   7.8032205792860E-16
(PID.TID 0000.0001) %MON dynstat_eta_sd               =   3.7078132483896E-01
(PID.TID 0000.0001) %MON dynstat_eta_del2             =   2.0097174581489E-02
(PID.TID 0000.0001) %MON dynstat_uvel_max             =   1.8290043295311E-01
(PID.TID 0000.0001) %MON dynstat_uvel_min             =  -1.6498044329089E-01
(PID.TID 0000.0001) %MON dynstat_uvel_mean            =  -5.8420643174040E-03
(PID.TID 0000.0001) %MON dynstat_uvel_sd              =   1.8342821793100E-02
(PID.TID 0000.0001) %MON dynstat_uvel_del2            =   3.7406554203099E-03
(PID.TID 0000.0001) %MON dynstat_vvel_max             =   1.4471029931267E-01
(PID.TID 0000.0001) %MON dynstat_vvel_min             =  -1.7148137212348E-01
(PID.TID 0000.0001) %MON dynstat_vvel_mean            =   2.3150674430123E-03
(PID.TID 0000.0001) %MON dynstat_vvel_sd              =   1.4027830286026E-02
(PID.TID 0000.0001) %MON dynstat_vvel_del2            =   3.5054462371183E-03
(PID.TID 0000.0001) %MON dynstat_wvel_max             =   2.5034824095607E-04
(PID.TID 0000.0001) %MON dynstat_wvel_min             =  -2.3574830973554E-04
(PID.TID 0000.0001) %MON dynstat_wvel_mean            =   1.2310246511453E-22
(PID.TID 0000.0001) %MON dynstat_wvel_sd              =   2.5908173430780E-05
(PID.TID 0000.0001) %MON dynstat_wvel_del2            =   9.0434432471314E-06
(PID.TID 0000.0001) %MON dynstat_theta_max            =   2.9305712246420E+01
(PID.TID 0000.0001) %MON dynstat_theta_min            =  -1.9987410214325E+00
(PID.TID 0000.0001) %MON dynstat_theta_mean           =   3.5945465161650E+00
(PID.TID 0000.0001) %MON dynstat_theta_sd             =   4.3481333921692E+00
(PID.TID 0000.0001) %MON dynstat_theta_del2           =   1.3970827692120E-01
(PID.TID 0000.0001) %MON dynstat_salt_max             =   3.7416763708267E+01
(PID.TID 0000.0001) %MON dynstat_salt_min             =   2.9782637234375E+01
(PID.TID 0000.0001) %MON dynstat_salt_mean            =   3.4716313511349E+01
(PID.TID 0000.0001) %MON dynstat_salt_sd              =   2.9573354899216E-01
(PID.TID 0000.0001) %MON dynstat_salt_del2            =   2.6126911487355E-02
(PID.TID 0000.0001) %MON dynstat_sst_max              =   2.9305712246420E+01
(PID.TID 0000.0001) %MON dynstat_sst_min              =  -1.9083572790097E+00
(PID.TID 0000.0001) %MON dynstat_sst_mean             =   1.8504832459921E+01
(PID.TID 0000.0001) %MON dynstat_sst_sd               =   8.9241385843706E+00
(PID.TID 0000.0001) %MON dynstat_sst_del2             =   2.7321282906421E-01
(PID.TID 0000.0001) %MON dynstat_sss_max              =   3.7416763708267E+01
(PID.TID 0000.0001) %MON dynstat_sss_min              =   2.9782637234375E+01
(PID.TID 0000.0001) %MON dynstat_sss_mean             =   3.4855208516264E+01
(PID.TID 0000.0001) %MON dynstat_sss_sd               =   9.6614184065649E-01
(PID.TID 0000.0001) %MON dynstat_sss_del2             =   8.1700775666649E-02
(PID.TID 0000.0001) %MON extforcing_qnet_max          =   4.3899314880371E+02
(PID.TID 0000.0001) %MON extforcing_qnet_min          =  -1.8167717742920E+02
(PID.TID 0000.0001) %MON extforcing_qnet_mean         =  -1.6543805890602E+01
(PID.TID 0000.0001) %MON extforcing_qnet_sd           =   1.1032852015070E+02
(PID.TID 0000.0001) %MON extforcing_qnet_del2         =   9.6110353677757E+00
(PID.TID 0000.0001) %MON extforcing_qsw_max           =   0.0000000000000E+00
(PID.TID 0000.0001) %MON extforcing_qsw_min           =   0.0000000000000E+00
(PID.TID 0000.0001) %MON extforcing_qsw_mean          =   0.0000000000000E+00
(PID.TID 0000.0001) %MON extforcing_qsw_sd            =   0.0000000000000E+00
(PID.TID 0000.0001) %MON extforcing_qsw_del2          =   0.0000000000000E+00
(PID.TID 0000.0001) %MON extforcing_empmr_max         =   0.0000000000000E+00
(PID.TID 0000.0001) %MON extforcing_empmr_min         =   0.0000000000000E+00
(PID.TID 0000.0001) %MON extforcing_empmr_mean        =   0.0000000000000E+00
(PID.TID 0000.0001) %MON extforcing_empmr_sd          =   0.0000000000000E+00
(PID.TID 0000.0001) %MON extforcing_empmr_del2        =   0.0000000000000E+00
(PID.TID 0000.0001) %MON extforcing_fu_max            =   2.7047514170408E-01
(PID.TID 0000.0001) %MON extforcing_fu_min            =  -1.6884702071548E-01
(PID.TID 0000.0001) %MON extforcing_fu_mean           =   1.6020967205159E-02
(PID.TID 0000.0001) %MON extforcing_fu_sd             =   9.0742976042764E-02
(PID.TID 0000.0001) %MON extforcing_fu_del2           =   7.5684254918198E-03
(PID.TID 0000.0001) %MON extforcing_fv_max            =   2.2842155769467E-01
(PID.TID 0000.0001) %MON extforcing_fv_min            =  -1.7959854379296E-01
(PID.TID 0000.0001) %MON extforcing_fv_mean           =  -5.4433040566572E-03
(PID.TID 0000.0001) %MON extforcing_fv_sd             =   4.7515188940965E-02
(PID.TID 0000.0001) %MON extforcing_fv_del2           =   4.6964210649275E-03
(PID.TID 0000.0001) %MON advcfl_uvel_max              =   2.4466991258186E-02
(PID.TID 0000.0001) %MON advcfl_vvel_max              =   1.6658040186516E-02
(PID.TID 0000.0001) %MON advcfl_wvel_max              =   1.6867028912207E-01
(PID.TID 0000.0001) %MON advcfl_W_hf_max              =   1.3027038613892E-01
(PID.TID 0000.0001) %MON pe_b_mean                    =   1.7592068359956E-04
(PID.TID 0000.0001) %MON ke_max                       =   1.7570458148027E-02
(PID.TID 0000.0001) %MON ke_mean                      =   2.5911342209743E-04
(PID.TID 0000.0001) %MON ke_vol                       =   1.3226782436723E+18
(PID.TID 0000.0001) %MON vort_r_min                   =  -5.3763945025178E-07
(PID.TID 0000.0001) %MON vort_r_max                   =   3.9734710309253E-07
(PID.TID 0000.0001) %MON vort_a_mean                  =  -2.5205769426015E-05
(PID.TID 0000.0001) %MON vort_a_sd                    =   7.3402066603858E-05
(PID.TID 0000.0001) %MON vort_p_mean                  =  -3.1758669598515E-05
(PID.TID 0000.0001) %MON vort_p_sd                    =   1.3126239683840E-04
(PID.TID 0000.0001) %MON surfExpan_theta_mean         =  -1.1457298071660E-05
(PID.TID 0000.0001) %MON surfExpan_salt_mean          =  -3.3830419986733E-06
(PID.TID 0000.0001) // =======================================================
(PID.TID 0000.0001) // End MONITOR dynamic field statistics
(PID.TID 0000.0001) // =======================================================
time,SST,SSS,fu,fv,Q,E-P,i0,i1,a,b =   1.1232E+06  8.3772E-01  3.4668E+01 -3.6282E-02 -5.8123E-02  2.6568E+02  0.0000E+00    12     1  9.3333E-01  6.6667E-02
time,fu0,fu1,fu =   1.1232E+06 -4.5368E-02 -3.5633E-02 -3.6282E-02  9.333333333333333E-01  6.666666666666665E-02
 cg2d: Sum(rhs),rhsMax =  -1.31139543668723E-12  1.22139653314387E+01
(PID.TID 0000.0001)                    cg2d_init_res =    5.61986717358548E-01
(PID.TID 0000.0001)                       cg2d_iters =    25
(PID.TID 0000.0001)                         cg2d_res =    2.83429280031087E-14
(PID.TID 0000.0001) // =======================================================
(PID.TID 0000.0001) // Begin MONITOR dynamic field statistics
(PID.TID 0000.0001) // =======================================================
(PID.TID 0000.0001) %MON time_tsnumber                =                    27
(PID.TID 0000.0001) %MON time_secondsf                =   1.1664000000000E+06
(PID.TID 0000.0001) %MON dynstat_eta_max              =   1.4386988329431E+00
(PID.TID 0000.0001) %MON dynstat_eta_min              =  -9.3541116432615E-01
(PID.TID 0000.0001) %MON dynstat_eta_mean             =   7.1008928744003E-16
(PID.TID 0000.0001) %MON dynstat_eta_sd               =   3.6783953865912E-01
(PID.TID 0000.0001) %MON dynstat_eta_del2             =   2.0446295139773E-02
(PID.TID 0000.0001) %MON dynstat_uvel_max             =   1.8253708088965E-01
(PID.TID 0000.0001) %MON dynstat_uvel_min             =  -1.6635884988186E-01
(PID.TID 0000.0001) %MON dynstat_uvel_mean            =  -5.2253986517096E-03
(PID.TID 0000.0001) %MON dynstat_uvel_sd              =   1.8104910073143E-02
(PID.TID 0000.0001) %MON dynstat_uvel_del2            =   3.7449390373184E-03
(PID.TID 0000.0001) %MON dynstat_vvel_max             =   1.4624713739342E-01
(PID.TID 0000.0001) %MON dynstat_vvel_min             =  -1.7087426148991E-01
(PID.TID 0000.0001) %MON dynstat_vvel_mean            =   2.5125060714260E-03
(PID.TID 0000.0001) %MON dynstat_vvel_sd              =   1.4147501519481E-02
(PID.TID 0000.0001) %MON dynstat_vvel_del2            =   3.5376111196098E-03
(PID.TID 0000.0001) %MON dynstat_wvel_max             =   2.4310162894698E-04
(PID.TID 0000.0001) %MON dynstat_wvel_min             =  -2.2783295198720E-04
(PID.TID 0000.0001) %MON dynstat_wvel_mean            =   7.5454448362963E-22
(PID.TID 0000.0001) %MON dynstat_wvel_sd              =   2.6015824901437E-05
(PID.TID 0000.0001) %MON dynstat_wvel_del2            =   9.1663527977796E-06
(PID.TID 0000.0001) %MON dynstat_theta_max            =   2.9282504394263E+01
(PID.TID 0000.0001) %MON dynstat_theta_min            =  -1.9974977585395E+00
(PID.TID 0000.0001) %MON dynstat_theta_mean           =   3.5947392583942E+00
(PID.TID 0000.0001) %MON dynstat_theta_sd             =   4.3484265555055E+00
(PID.TID 0000.0001) %MON dynstat_theta_del2           =   1.3968525326391E-01
(PID.TID 0000.0001) %MON dynstat_salt_max             =   3.7415851288928E+01
(PID.TID 0000.0001) %MON dynstat_salt_min             =   2.9784262768913E+01
(PID.TID 0000.0001) %MON dynstat_salt_mean            =   3.4716352014733E+01
(PID.TID 0000.0001) %MON dynstat_salt_sd              =   2.9571189622989E-01
(PID.TID 0000.0001) %MON dynstat_salt_del2            =   2.6136407971562E-02
(PID.TID 0000.0001) %MON dynstat_sst_max              =   2.9282504394263E+01
(PID.TID 0000.0001) %MON dynstat_sst_min              =  -1.9082257044799E+00
(PID.TID 0000.0001) %MON dynstat_sst_mean             =   1.8508377857460E+01
(PID.TID 0000.0001) %MON dynstat_sst_sd               =   8.9264324915627E+00
(PID.TID 0000.0001) %MON dynstat_sst_del2             =   2.7355654341950E-01
(PID.TID 0000.0001) %MON dynstat_sss_max              =   3.7415851288928E+01
(PID.TID 0000.0001) %MON dynstat_sss_min              =   2.9784262768913E+01
(PID.TID 0000.0001) %MON dynstat_sss_mean             =   3.4855587797879E+01
(PID.TID 0000.0001) %MON dynstat_sss_sd               =   9.6580678849879E-01
(PID.TID 0000.0001) %MON dynstat_sss_del2             =   8.1775896888668E-02
(PID.TID 0000.0001) %MON extforcing_qnet_max          =   4.3951724243164E+02
(PID.TID 0000.0001) %MON extforcing_qnet_min          =  -1.8160680541992E+02
(PID.TID 0000.0001) %MON extforcing_qnet_mean         =  -1.6537549912690E+01
(PID.TID 0000.0001) %MON extforcing_qnet_sd           =   1.1023602940575E+02
(PID.TID 0000.0001) %MON extforcing_qnet_del2         =   9.6214528970052E+00
(PID.TID 0000.0001) %MON extforcing_qsw_max           =   0.0000000000000E+00
(PID.TID 0000.0001) %MON extforcing_qsw_min           =   0.0000000000000E+00
(PID.TID 0000.0001) %MON extforcing_qsw_mean          =   0.0000000000000E+00
(PID.TID 0000.0001) %MON extforcing_qsw_sd            =   0.0000000000000E+00
(PID.TID 0000.0001) %MON extforcing_qsw_del2          =   0.0000000000000E+00
(PID.TID 0000.0001) %MON extforcing_empmr_max         =   0.0000000000000E+00
(PID.TID 0000.0001) %MON extforcing_empmr_min         =   0.0000000000000E+00
(PID.TID 0000.0001) %MON extforcing_empmr_mean        =   0.0000000000000E+00
(PID.TID 0000.0001) %MON extforcing_empmr_sd          =   0.0000000000000E+00
(PID.TID 0000.0001) %MON extforcing_empmr_del2        =   0.0000000000000E+00
(PID.TID 0000.0001) %MON extforcing_fu_max            =   2.7213588953018E-01
(PID.TID 0000.0001) %MON extforcing_fu_min            =  -1.6925373077393E-01
(PID.TID 0000.0001) %MON extforcing_fu_mean           =   1.6017120794640E-02
(PID.TID 0000.0001) %MON extforcing_fu_sd             =   9.0801548316031E-02
(PID.TID 0000.0001) %MON extforcing_fu_del2           =   7.5911469103871E-03
(PID.TID 0000.0001) %MON extforcing_fv_max            =   2.2936151027679E-01
(PID.TID 0000.0001) %MON extforcing_fv_min            =  -1.7930621504784E-01
(PID.TID 0000.0001) %MON extforcing_fv_mean           =  -5.4064227932267E-03
(PID.TID 0000.0001) %MON extforcing_fv_sd             =   4.7655349358660E-02
(PID.TID 0000.0001) %MON extforcing_fv_del2           =   4.7267771735577E-03
(PID.TID 0000.0001) %MON advcfl_uvel_max              =   2.3860777911806E-02
(PID.TID 0000.0001) %MON advcfl_vvel_max              =   1.6599064256907E-02
(PID.TID 0000.0001) %MON advcfl_wvel_max              =   1.6267328659278E-01
(PID.TID 0000.0001) %MON advcfl_W_hf_max              =   1.1909130281372E-01
(PID.TID 0000.0001) %MON pe_b_mean                    =   1.7314024138043E-04
(PID.TID 0000.0001) %MON ke_max                       =   1.7607804534002E-02
(PID.TID 0000.0001) %MON ke_mean                      =   2.5401488251020E-04
(PID.TID 0000.0001) %MON ke_vol                       =   1.3226782436723E+18
(PID.TID 0000.0001) %MON vort_r_min                   =  -5.5660826838720E-07
(PID.TID 0000.0001) %MON vort_r_max                   =   3.8879089239812E-07
(PID.TID 0000.0001) %MON vort_a_mean                  =  -2.5205769451260E-05
(PID.TID 0000.0001) %MON vort_a_sd                    =   7.3402188598153E-05
(PID.TID 0000.0001) %MON vort_p_mean                  =  -3.1758669630322E-05
(PID.TID 0000.0001) %MON vort_p_sd                    =   1.3126272452998E-04
(PID.TID 0000.0001) %MON surfExpan_theta_mean         =  -1.3216530263594E-05
(PID.TID 0000.0001) %MON surfExpan_salt_mean          =  -3.2959154570280E-06
(PID.TID 0000.0001) // =======================================================
(PID.TID 0000.0001) // End MONITOR dynamic field statistics
(PID.TID 0000.0001) // =======================================================
time,SST,SSS,fu,fv,Q,E-P,i0,i1,a,b =   1.1664E+06  8.6790E-01  3.4679E+01 -3.6120E-02 -5.7906E-02  2.6570E+02  0.0000E+00    12     1  9.5000E-01  5.0000E-02
time,fu0,fu1,fu =   1.1664E+06 -4.5368E-02 -3.5633E-02 -3.6120E-02  9.500000000000000E-01  5.000000000000004E-02
 cg2d: Sum(rhs),rhsMax =  -1.15888201812631E-12  1.17775992285089E+01
(PID.TID 0000.0001)                    cg2d_init_res =    5.87009970073395E-01
(PID.TID 0000.0001)                       cg2d_iters =    25
(PID.TID 0000.0001)                         cg2d_res =    2.50829371737854E-14
(PID.TID 0000.0001) // =======================================================
(PID.TID 0000.0001) // Begin MONITOR dynamic field statistics
(PID.TID 0000.0001) // =======================================================
(PID.TID 0000.0001) %MON time_tsnumber                =                    28
(PID.TID 0000.0001) %MON time_secondsf                =   1.2096000000000E+06
(PID.TID 0000.0001) %MON dynstat_eta_max              =   1.3863803127125E+00
(PID.TID 0000.0001) %MON dynstat_eta_min              =  -9.5416637844325E-01
(PID.TID 0000.0001) %MON dynstat_eta_mean             =   8.6922649328588E-16
(PID.TID 0000.0001) %MON dynstat_eta_sd               =   3.6516850014672E-01
(PID.TID 0000.0001) %MON dynstat_eta_del2             =   2.0861302988527E-02
(PID.TID 0000.0001) %MON dynstat_uvel_max             =   1.8062294471780E-01
(PID.TID 0000.0001) %MON dynstat_uvel_min             =  -1.6708169905968E-01
(PID.TID 0000.0001) %MON dynstat_uvel_mean            =  -4.6405024656195E-03
(PID.TID 0000.0001) %MON dynstat_uvel_sd              =   1.7820152539901E-02
(PID.TID 0000.0001) %MON dynstat_uvel_del2            =   3.7405724153961E-03
(PID.TID 0000.0001) %MON dynstat_vvel_max             =   1.4729562314572E-01
(PID.TID 0000.0001) %MON dynstat_vvel_min             =  -1.6566666237724E-01
(PID.TID 0000.0001) %MON dynstat_vvel_mean            =   2.7394071316678E-03
(PID.TID 0000.0001) %MON dynstat_vvel_sd              =   1.4272384505353E-02
(PID.TID 0000.0001) %MON dynstat_vvel_del2            =   3.5673057233203E-03
(PID.TID 0000.0001) %MON dynstat_wvel_max             =   2.3642571628876E-04
(PID.TID 0000.0001) %MON dynstat_wvel_min             =  -2.1987880088358E-04
(PID.TID 0000.0001) %MON dynstat_wvel_mean            =  -1.1489104672232E-22
(PID.TID 0000.0001) %MON dynstat_wvel_sd              =   2.6162979152895E-05
(PID.TID 0000.0001) %MON dynstat_wvel_del2            =   9.2764227644473E-06
(PID.TID 0000.0001) %MON dynstat_theta_max            =   2.9293943332327E+01
(PID.TID 0000.0001) %MON dynstat_theta_min            =  -1.9999785586779E+00
(PID.TID 0000.0001) %MON dynstat_theta_mean           =   3.5949413880279E+00
(PID.TID 0000.0001) %MON dynstat_theta_sd             =   4.3489226757904E+00
(PID.TID 0000.0001) %MON dynstat_theta_del2           =   1.3971477978275E-01
(PID.TID 0000.0001) %MON dynstat_salt_max             =   3.7414894390187E+01
(PID.TID 0000.0001) %MON dynstat_salt_min             =   2.9786281296534E+01
(PID.TID 0000.0001) %MON dynstat_salt_mean            =   3.4716388348108E+01
(PID.TID 0000.0001) %MON dynstat_salt_sd              =   2.9568882875671E-01
(PID.TID 0000.0001) %MON dynstat_salt_del2            =   2.6150899808342E-02
(PID.TID 0000.0001) %MON dynstat_sst_max              =   2.9293943332327E+01
(PID.TID 0000.0001) %MON dynstat_sst_min              =  -1.9080942500453E+00
(PID.TID 0000.0001) %MON dynstat_sst_mean             =   1.8511629280418E+01
(PID.TID 0000.0001) %MON dynstat_sst_sd               =   8.9297377147184E+00
(PID.TID 0000.0001) %MON dynstat_sst_del2             =   2.7354470483122E-01
(PID.TID 0000.0001) %MON dynstat_sss_max              =   3.7414894390187E+01
(PID.TID 0000.0001) %MON dynstat_sss_min              =   2.9786281296534E+01
(PID.TID 0000.0001) %MON dynstat_sss_mean             =   3.4855755467002E+01
(PID.TID 0000.0001) %MON dynstat_sss_sd               =   9.6551530840422E-01
(PID.TID 0000.0001) %MON dynstat_sss_del2             =   8.1787028626709E-02
(PID.TID 0000.0001) %MON extforcing_qnet_max          =   4.4004133605957E+02
(PID.TID 0000.0001) %MON extforcing_qnet_min          =  -1.8153643341064E+02
(PID.TID 0000.0001) %MON extforcing_qnet_mean         =  -1.6531293934779E+01
(PID.TID 0000.0001) %MON extforcing_qnet_sd           =   1.1014421861345E+02
(PID.TID 0000.0001) %MON extforcing_qnet_del2         =   9.6322938738837E+00
(PID.TID 0000.0001) %MON extforcing_qsw_max           =   0.0000000000000E+00
(PID.TID 0000.0001) %MON extforcing_qsw_min           =   0.0000000000000E+00
(PID.TID 0000.0001) %MON extforcing_qsw_mean          =   0.0000000000000E+00
(PID.TID 0000.0001) %MON extforcing_qsw_sd            =   0.0000000000000E+00
(PID.TID 0000.0001) %MON extforcing_qsw_del2          =   0.0000000000000E+00
(PID.TID 0000.0001) %MON extforcing_empmr_max         =   0.0000000000000E+00
(PID.TID 0000.0001) %MON extforcing_empmr_min         =   0.0000000000000E+00
(PID.TID 0000.0001) %MON extforcing_empmr_mean        =   0.0000000000000E+00
(PID.TID 0000.0001) %MON extforcing_empmr_sd          =   0.0000000000000E+00
(PID.TID 0000.0001) %MON extforcing_empmr_del2        =   0.0000000000000E+00
(PID.TID 0000.0001) %MON extforcing_fu_max            =   2.7379663735628E-01
(PID.TID 0000.0001) %MON extforcing_fu_min            =  -1.6966044083238E-01
(PID.TID 0000.0001) %MON extforcing_fu_mean           =   1.6013274384122E-02
(PID.TID 0000.0001) %MON extforcing_fu_sd             =   9.0862777390927E-02
(PID.TID 0000.0001) %MON extforcing_fu_del2           =   7.6145278787288E-03
(PID.TID 0000.0001) %MON extforcing_fv_max            =   2.3030146285892E-01
(PID.TID 0000.0001) %MON extforcing_fv_min            =  -1.7901388630271E-01
(PID.TID 0000.0001) %MON extforcing_fv_mean           =  -5.3695415297964E-03
(PID.TID 0000.0001) %MON extforcing_fv_sd             =   4.7798800973010E-02
(PID.TID 0000.0001) %MON extforcing_fv_del2           =   4.7578813107966E-03
(PID.TID 0000.0001) %MON advcfl_uvel_max              =   2.3610566952659E-02
(PID.TID 0000.0001) %MON advcfl_vvel_max              =   1.6093187763035E-02
(PID.TID 0000.0001) %MON advcfl_wvel_max              =   1.5162268690320E-01
(PID.TID 0000.0001) %MON advcfl_W_hf_max              =   1.1351986077746E-01
(PID.TID 0000.0001) %MON pe_b_mean                    =   1.7063488167845E-04
(PID.TID 0000.0001) %MON ke_max                       =   1.7852330157960E-02
(PID.TID 0000.0001) %MON ke_mean                      =   2.4887399550376E-04
(PID.TID 0000.0001) %MON ke_vol                       =   1.3226782436723E+18
(PID.TID 0000.0001) %MON vort_r_min                   =  -5.6316767950331E-07
(PID.TID 0000.0001) %MON vort_r_max                   =   3.8574041717282E-07
(PID.TID 0000.0001) %MON vort_a_mean                  =  -2.5205769477306E-05
(PID.TID 0000.0001) %MON vort_a_sd                    =   7.3402307030892E-05
(PID.TID 0000.0001) %MON vort_p_mean                  =  -3.1758669663140E-05
(PID.TID 0000.0001) %MON vort_p_sd                    =   1.3126302659184E-04
(PID.TID 0000.0001) %MON surfExpan_theta_mean         =  -1.3557335736925E-05
(PID.TID 0000.0001) %MON surfExpan_salt_mean          =  -3.0439197541207E-06
(PID.TID 0000.0001) // =======================================================
(PID.TID 0000.0001) // End MONITOR dynamic field statistics
(PID.TID 0000.0001) // =======================================================
time,SST,SSS,fu,fv,Q,E-P,i0,i1,a,b =   1.2096E+06  8.9807E-01  3.4691E+01 -3.5957E-02 -5.7690E-02  2.6573E+02  0.0000E+00    12     1  9.6667E-01  3.3333E-02
time,fu0,fu1,fu =   1.2096E+06 -4.5368E-02 -3.5633E-02 -3.5957E-02  9.666666666666667E-01  3.333333333333333E-02
 cg2d: Sum(rhs),rhsMax =  -1.01385566608769E-12  1.11321543547212E+01
(PID.TID 0000.0001)                    cg2d_init_res =    6.30592661280717E-01
(PID.TID 0000.0001)                       cg2d_iters =    25
(PID.TID 0000.0001)                         cg2d_res =    2.30917283445768E-14
(PID.TID 0000.0001) // =======================================================
(PID.TID 0000.0001) // Begin MONITOR dynamic field statistics
(PID.TID 0000.0001) // =======================================================
(PID.TID 0000.0001) %MON time_tsnumber                =                    29
(PID.TID 0000.0001) %MON time_secondsf                =   1.2528000000000E+06
(PID.TID 0000.0001) %MON dynstat_eta_max              =   1.3098783416427E+00
(PID.TID 0000.0001) %MON dynstat_eta_min              =  -9.7193799886207E-01
(PID.TID 0000.0001) %MON dynstat_eta_mean             =   9.3322947941791E-16
(PID.TID 0000.0001) %MON dynstat_eta_sd               =   3.6299224209871E-01
(PID.TID 0000.0001) %MON dynstat_eta_del2             =   2.1255246203208E-02
(PID.TID 0000.0001) %MON dynstat_uvel_max             =   1.7716116843958E-01
(PID.TID 0000.0001) %MON dynstat_uvel_min             =  -1.6714977364304E-01
(PID.TID 0000.0001) %MON dynstat_uvel_mean            =  -4.0972144829266E-03
(PID.TID 0000.0001) %MON dynstat_uvel_sd              =   1.7494011424168E-02
(PID.TID 0000.0001) %MON dynstat_uvel_del2            =   3.7253265168149E-03
(PID.TID 0000.0001) %MON dynstat_vvel_max             =   1.4787824457300E-01
(PID.TID 0000.0001) %MON dynstat_vvel_min             =  -1.5603468822616E-01
(PID.TID 0000.0001) %MON dynstat_vvel_mean            =   2.9845802031730E-03
(PID.TID 0000.0001) %MON dynstat_vvel_sd              =   1.4393809715582E-02
(PID.TID 0000.0001) %MON dynstat_vvel_del2            =   3.5935795610364E-03
(PID.TID 0000.0001) %MON dynstat_wvel_max             =   2.3221417712440E-04
(PID.TID 0000.0001) %MON dynstat_wvel_min             =  -2.1402691858756E-04
(PID.TID 0000.0001) %MON dynstat_wvel_mean            =   7.4663124523490E-22
(PID.TID 0000.0001) %MON dynstat_wvel_sd              =   2.6303185757010E-05
(PID.TID 0000.0001) %MON dynstat_wvel_del2            =   9.3465514156426E-06
(PID.TID 0000.0001) %MON dynstat_theta_max            =   2.9316509599849E+01
(PID.TID 0000.0001) %MON dynstat_theta_min            =  -2.0024825294375E+00
(PID.TID 0000.0001) %MON dynstat_theta_mean           =   3.5951378525348E+00
(PID.TID 0000.0001) %MON dynstat_theta_sd             =   4.3495773180402E+00
(PID.TID 0000.0001) %MON dynstat_theta_del2           =   1.3972572406840E-01
(PID.TID 0000.0001) %MON dynstat_salt_max             =   3.7413886932048E+01
(PID.TID 0000.0001) %MON dynstat_salt_min             =   2.9788664555153E+01
(PID.TID 0000.0001) %MON dynstat_salt_mean            =   3.4716420728984E+01
(PID.TID 0000.0001) %MON dynstat_salt_sd              =   2.9566376157471E-01
(PID.TID 0000.0001) %MON dynstat_salt_del2            =   2.6154696771599E-02
(PID.TID 0000.0001) %MON dynstat_sst_max              =   2.9316509599849E+01
(PID.TID 0000.0001) %MON dynstat_sst_min              =  -1.9081240493383E+00
(PID.TID 0000.0001) %MON dynstat_sst_mean             =   1.8514718910395E+01
(PID.TID 0000.0001) %MON dynstat_sst_sd               =   8.9339610026844E+00
(PID.TID 0000.0001) %MON dynstat_sst_del2             =   2.7361655409037E-01
(PID.TID 0000.0001) %MON dynstat_sss_max              =   3.7413886932048E+01
(PID.TID 0000.0001) %MON dynstat_sss_min              =   2.9788664555153E+01
(PID.TID 0000.0001) %MON dynstat_sss_mean             =   3.4855727969593E+01
(PID.TID 0000.0001) %MON dynstat_sss_sd               =   9.6531395670726E-01
(PID.TID 0000.0001) %MON dynstat_sss_del2             =   8.1768949678577E-02
(PID.TID 0000.0001) %MON extforcing_qnet_max          =   4.4056542968750E+02
(PID.TID 0000.0001) %MON extforcing_qnet_min          =  -1.8146606140137E+02
(PID.TID 0000.0001) %MON extforcing_qnet_mean         =  -1.6525037956867E+01
(PID.TID 0000.0001) %MON extforcing_qnet_sd           =   1.1005308947553E+02
(PID.TID 0000.0001) %MON extforcing_qnet_del2         =   9.6438151725511E+00
(PID.TID 0000.0001) %MON extforcing_qsw_max           =   0.0000000000000E+00
(PID.TID 0000.0001) %MON extforcing_qsw_min           =   0.0000000000000E+00
(PID.TID 0000.0001) %MON extforcing_qsw_mean          =   0.0000000000000E+00
(PID.TID 0000.0001) %MON extforcing_qsw_sd            =   0.0000000000000E+00
(PID.TID 0000.0001) %MON extforcing_qsw_del2          =   0.0000000000000E+00
(PID.TID 0000.0001) %MON extforcing_empmr_max         =   0.0000000000000E+00
(PID.TID 0000.0001) %MON extforcing_empmr_min         =   0.0000000000000E+00
(PID.TID 0000.0001) %MON extforcing_empmr_mean        =   0.0000000000000E+00
(PID.TID 0000.0001) %MON extforcing_empmr_sd          =   0.0000000000000E+00
(PID.TID 0000.0001) %MON extforcing_empmr_del2        =   0.0000000000000E+00
(PID.TID 0000.0001) %MON extforcing_fu_max            =   2.7545738518238E-01
(PID.TID 0000.0001) %MON extforcing_fu_min            =  -1.7006715089083E-01
(PID.TID 0000.0001) %MON extforcing_fu_mean           =   1.6009427973603E-02
(PID.TID 0000.0001) %MON extforcing_fu_sd             =   9.0926657900263E-02
(PID.TID 0000.0001) %MON extforcing_fu_del2           =   7.6387504454075E-03
(PID.TID 0000.0001) %MON extforcing_fv_max            =   2.3124141544104E-01
(PID.TID 0000.0001) %MON extforcing_fv_min            =  -1.7872155755758E-01
(PID.TID 0000.0001) %MON extforcing_fv_mean           =  -5.3326602663659E-03
(PID.TID 0000.0001) %MON extforcing_fv_sd             =   4.7945514242523E-02
(PID.TID 0000.0001) %MON extforcing_fv_del2           =   4.7896564843780E-03
(PID.TID 0000.0001) %MON advcfl_uvel_max              =   2.3158052457781E-02
(PID.TID 0000.0001) %MON advcfl_vvel_max              =   1.5157518713404E-02
(PID.TID 0000.0001) %MON advcfl_wvel_max              =   1.3911760731530E-01
(PID.TID 0000.0001) %MON advcfl_W_hf_max              =   1.0741584587766E-01
(PID.TID 0000.0001) %MON pe_b_mean                    =   1.6860711094233E-04
(PID.TID 0000.0001) %MON ke_max                       =   1.7974435549757E-02
(PID.TID 0000.0001) %MON ke_mean                      =   2.4367750455665E-04
(PID.TID 0000.0001) %MON ke_vol                       =   1.3226782436723E+18
(PID.TID 0000.0001) %MON vort_r_min                   =  -5.5765996667173E-07
(PID.TID 0000.0001) %MON vort_r_max                   =   3.9208664481969E-07
(PID.TID 0000.0001) %MON vort_a_mean                  =  -2.5205769500577E-05
(PID.TID 0000.0001) %MON vort_a_sd                    =   7.3402419867102E-05
(PID.TID 0000.0001) %MON vort_p_mean                  =  -3.1758669692460E-05
(PID.TID 0000.0001) %MON vort_p_sd                    =   1.3126330023043E-04
(PID.TID 0000.0001) %MON surfExpan_theta_mean         =  -1.2651952410086E-05
(PID.TID 0000.0001) %MON surfExpan_salt_mean          =  -2.6446147494733E-06
(PID.TID 0000.0001) // =======================================================
(PID.TID 0000.0001) // End MONITOR dynamic field statistics
(PID.TID 0000.0001) // =======================================================
time,SST,SSS,fu,fv,Q,E-P,i0,i1,a,b =   1.2528E+06  9.2825E-01  3.4703E+01 -3.5795E-02 -5.7473E-02  2.6575E+02  0.0000E+00    12     1  9.8333E-01  1.6667E-02
time,fu0,fu1,fu =   1.2528E+06 -4.5368E-02 -3.5633E-02 -3.5795E-02  9.833333333333333E-01  1.666666666666672E-02
 cg2d: Sum(rhs),rhsMax =  -1.21270354869196E-12  1.02967139423326E+01
(PID.TID 0000.0001)                    cg2d_init_res =    6.93694709666256E-01
(PID.TID 0000.0001)                       cg2d_iters =    24
(PID.TID 0000.0001)                         cg2d_res =    5.66216887658535E-14
(PID.TID 0000.0001) // =======================================================
(PID.TID 0000.0001) // Begin MONITOR dynamic field statistics
(PID.TID 0000.0001) // =======================================================
(PID.TID 0000.0001) %MON time_tsnumber                =                    30
(PID.TID 0000.0001) %MON time_secondsf                =   1.2960000000000E+06
(PID.TID 0000.0001) %MON dynstat_eta_max              =   1.2114479894984E+00
(PID.TID 0000.0001) %MON dynstat_eta_min              =  -9.8822597770733E-01
(PID.TID 0000.0001) %MON dynstat_eta_mean             =   8.8090070587905E-16
(PID.TID 0000.0001) %MON dynstat_eta_sd               =   3.6152843122110E-01
(PID.TID 0000.0001) %MON dynstat_eta_del2             =   2.1618000128902E-02
(PID.TID 0000.0001) %MON dynstat_uvel_max             =   1.7276400886347E-01
(PID.TID 0000.0001) %MON dynstat_uvel_min             =  -1.6657872207547E-01
(PID.TID 0000.0001) %MON dynstat_uvel_mean            =  -3.6033261988287E-03
(PID.TID 0000.0001) %MON dynstat_uvel_sd              =   1.7133205129442E-02
(PID.TID 0000.0001) %MON dynstat_uvel_del2            =   3.7026061698531E-03
(PID.TID 0000.0001) %MON dynstat_vvel_max             =   1.4801373026797E-01
(PID.TID 0000.0001) %MON dynstat_vvel_min             =  -1.5022585950105E-01
(PID.TID 0000.0001) %MON dynstat_vvel_mean            =   3.2368228662572E-03
(PID.TID 0000.0001) %MON dynstat_vvel_sd              =   1.4501336308661E-02
(PID.TID 0000.0001) %MON dynstat_vvel_del2            =   3.6126208243257E-03
(PID.TID 0000.0001) %MON dynstat_wvel_max             =   2.2645250571630E-04
(PID.TID 0000.0001) %MON dynstat_wvel_min             =  -2.0535135755783E-04
(PID.TID 0000.0001) %MON dynstat_wvel_mean            =   4.4302666549044E-23
(PID.TID 0000.0001) %MON dynstat_wvel_sd              =   2.6389649555427E-05
(PID.TID 0000.0001) %MON dynstat_wvel_del2            =   9.3720760630886E-06
(PID.TID 0000.0001) %MON dynstat_theta_max            =   2.9340363272058E+01
(PID.TID 0000.0001) %MON dynstat_theta_min            =  -2.0048640640351E+00
(PID.TID 0000.0001) %MON dynstat_theta_mean           =   3.5953157808304E+00
(PID.TID 0000.0001) %MON dynstat_theta_sd             =   4.3503440994920E+00
(PID.TID 0000.0001) %MON dynstat_theta_del2           =   1.3975527992558E-01
(PID.TID 0000.0001) %MON dynstat_salt_max             =   3.7412830366049E+01
(PID.TID 0000.0001) %MON dynstat_salt_min             =   2.9791372244223E+01
(PID.TID 0000.0001) %MON dynstat_salt_mean            =   3.4716447622631E+01
(PID.TID 0000.0001) %MON dynstat_salt_sd              =   2.9563593546128E-01
(PID.TID 0000.0001) %MON dynstat_salt_del2            =   2.6164920941233E-02
(PID.TID 0000.0001) %MON dynstat_sst_max              =   2.9340363272058E+01
(PID.TID 0000.0001) %MON dynstat_sst_min              =  -1.9083082424079E+00
(PID.TID 0000.0001) %MON dynstat_sst_mean             =   1.8517667429325E+01
(PID.TID 0000.0001) %MON dynstat_sst_sd               =   8.9387910703029E+00
(PID.TID 0000.0001) %MON dynstat_sst_del2             =   2.7376161950844E-01
(PID.TID 0000.0001) %MON dynstat_sss_max              =   3.7412830366049E+01
(PID.TID 0000.0001) %MON dynstat_sss_min              =   2.9791372244223E+01
(PID.TID 0000.0001) %MON dynstat_sss_mean             =   3.4855539785567E+01
(PID.TID 0000.0001) %MON dynstat_sss_sd               =   9.6517669862719E-01
(PID.TID 0000.0001) %MON dynstat_sss_del2             =   8.1789130297748E-02
(PID.TID 0000.0001) %MON extforcing_qnet_max          =   4.4108952331543E+02
(PID.TID 0000.0001) %MON extforcing_qnet_min          =  -1.8139568939209E+02
(PID.TID 0000.0001) %MON extforcing_qnet_mean         =  -1.6518781978955E+01
(PID.TID 0000.0001) %MON extforcing_qnet_sd           =   1.0996264368673E+02
(PID.TID 0000.0001) %MON extforcing_qnet_del2         =   9.6557642237088E+00
(PID.TID 0000.0001) %MON extforcing_qsw_max           =   0.0000000000000E+00
(PID.TID 0000.0001) %MON extforcing_qsw_min           =   0.0000000000000E+00
(PID.TID 0000.0001) %MON extforcing_qsw_mean          =   0.0000000000000E+00
(PID.TID 0000.0001) %MON extforcing_qsw_sd            =   0.0000000000000E+00
(PID.TID 0000.0001) %MON extforcing_qsw_del2          =   0.0000000000000E+00
(PID.TID 0000.0001) %MON extforcing_empmr_max         =   0.0000000000000E+00
(PID.TID 0000.0001) %MON extforcing_empmr_min         =   0.0000000000000E+00
(PID.TID 0000.0001) %MON extforcing_empmr_mean        =   0.0000000000000E+00
(PID.TID 0000.0001) %MON extforcing_empmr_sd          =   0.0000000000000E+00
(PID.TID 0000.0001) %MON extforcing_empmr_del2        =   0.0000000000000E+00
(PID.TID 0000.0001) %MON extforcing_fu_max            =   2.7711813300848E-01
(PID.TID 0000.0001) %MON extforcing_fu_min            =  -1.7047386094928E-01
(PID.TID 0000.0001) %MON extforcing_fu_mean           =   1.6005581563085E-02
(PID.TID 0000.0001) %MON extforcing_fu_sd             =   9.0993184259829E-02
(PID.TID 0000.0001) %MON extforcing_fu_del2           =   7.6649914412450E-03
(PID.TID 0000.0001) %MON extforcing_fv_max            =   2.3218136802316E-01
(PID.TID 0000.0001) %MON extforcing_fv_min            =  -1.7842922881246E-01
(PID.TID 0000.0001) %MON extforcing_fv_mean           =  -5.2957790029356E-03
(PID.TID 0000.0001) %MON extforcing_fv_sd             =   4.8095459318564E-02
(PID.TID 0000.0001) %MON extforcing_fv_del2           =   4.8224257639084E-03
(PID.TID 0000.0001) %MON advcfl_uvel_max              =   2.2880338466059E-02
(PID.TID 0000.0001) %MON advcfl_vvel_max              =   1.4593237583966E-02
(PID.TID 0000.0001) %MON advcfl_wvel_max              =   1.4292454569416E-01
(PID.TID 0000.0001) %MON advcfl_W_hf_max              =   1.0947069938996E-01
(PID.TID 0000.0001) %MON pe_b_mean                    =   1.6724999499990E-04
(PID.TID 0000.0001) %MON ke_max                       =   1.7952840426848E-02
(PID.TID 0000.0001) %MON ke_mean                      =   2.3837296119047E-04
(PID.TID 0000.0001) %MON ke_vol                       =   1.3226782436723E+18
(PID.TID 0000.0001) %MON vort_r_min                   =  -5.4102020909880E-07
(PID.TID 0000.0001) %MON vort_r_max                   =   3.9721014233801E-07
(PID.TID 0000.0001) %MON vort_a_mean                  =  -2.5205769518023E-05
(PID.TID 0000.0001) %MON vort_a_sd                    =   7.3402525379385E-05
(PID.TID 0000.0001) %MON vort_p_mean                  =  -3.1758669714442E-05
(PID.TID 0000.0001) %MON vort_p_sd                    =   1.3126354359492E-04
(PID.TID 0000.0001) %MON surfExpan_theta_mean         =  -1.0693546903922E-05
(PID.TID 0000.0001) %MON surfExpan_salt_mean          =  -2.1205991249945E-06
(PID.TID 0000.0001) // =======================================================
(PID.TID 0000.0001) // End MONITOR dynamic field statistics
(PID.TID 0000.0001) // =======================================================
S/R EXTERNAL_FIELDS_LOAD: Reading new data:    1    2        30  1.296000000000E+06
(PID.TID 0000.0001)  MDSREADFIELD: opening global file: trenberth_taux.bin
(PID.TID 0000.0001)  MDSREADFIELD: opening global file: trenberth_taux.bin
(PID.TID 0000.0001)  MDSREADFIELD: opening global file: trenberth_tauy.bin
(PID.TID 0000.0001)  MDSREADFIELD: opening global file: trenberth_tauy.bin
(PID.TID 0000.0001)  MDSREADFIELD: opening global file: ncep_qnet.bin
(PID.TID 0000.0001)  MDSREADFIELD: opening global file: ncep_qnet.bin
(PID.TID 0000.0001)  MDSREADFIELD: opening global file: lev_sst.bin
(PID.TID 0000.0001)  MDSREADFIELD: opening global file: lev_sst.bin
(PID.TID 0000.0001)  MDSREADFIELD: opening global file: lev_sss.bin
(PID.TID 0000.0001)  MDSREADFIELD: opening global file: lev_sss.bin
time,SST,SSS,fu,fv,Q,E-P,i0,i1,a,b =   1.2960E+06  9.5843E-01  3.4715E+01 -3.5633E-02 -5.7257E-02  2.6577E+02  0.0000E+00     1     2  0.0000E+00  1.0000E+00
time,fu0,fu1,fu =   1.2960E+06 -3.5633E-02 -1.4435E-02 -3.5633E-02  0.000000000000000E+00  1.000000000000000E+00
 cg2d: Sum(rhs),rhsMax =  -9.77776887234327E-13  9.29740447830929E+00
(PID.TID 0000.0001)                    cg2d_init_res =    7.78656049207341E-01
(PID.TID 0000.0001)                       cg2d_iters =    25
(PID.TID 0000.0001)                         cg2d_res =    2.76135253284533E-14
(PID.TID 0000.0001) // =======================================================
(PID.TID 0000.0001) // Begin MONITOR dynamic field statistics
(PID.TID 0000.0001) // =======================================================
(PID.TID 0000.0001) %MON time_tsnumber                =                    31
(PID.TID 0000.0001) %MON time_secondsf                =   1.3392000000000E+06
(PID.TID 0000.0001) %MON dynstat_eta_max              =   1.0941602084936E+00
(PID.TID 0000.0001) %MON dynstat_eta_min              =  -1.0030894080641E+00
(PID.TID 0000.0001) %MON dynstat_eta_mean             =   7.8011687479817E-16
(PID.TID 0000.0001) %MON dynstat_eta_sd               =   3.6096377610843E-01
(PID.TID 0000.0001) %MON dynstat_eta_del2             =   2.1939100278817E-02
(PID.TID 0000.0001) %MON dynstat_uvel_max             =   1.6862297121492E-01
(PID.TID 0000.0001) %MON dynstat_uvel_min             =  -1.6539787556128E-01
(PID.TID 0000.0001) %MON dynstat_uvel_mean            =  -3.1645608557399E-03
(PID.TID 0000.0001) %MON dynstat_uvel_sd              =   1.6745887787434E-02
(PID.TID 0000.0001) %MON dynstat_uvel_del2            =   3.6739962708933E-03
(PID.TID 0000.0001) %MON dynstat_vvel_max             =   1.5549140571780E-01
(PID.TID 0000.0001) %MON dynstat_vvel_min             =  -1.5221286745591E-01
(PID.TID 0000.0001) %MON dynstat_vvel_mean            =   3.4853212396156E-03
(PID.TID 0000.0001) %MON dynstat_vvel_sd              =   1.4584192652901E-02
(PID.TID 0000.0001) %MON dynstat_vvel_del2            =   3.6204068780046E-03
(PID.TID 0000.0001) %MON dynstat_wvel_max             =   2.1904773442268E-04
(PID.TID 0000.0001) %MON dynstat_wvel_min             =  -1.9527948748765E-04
(PID.TID 0000.0001) %MON dynstat_wvel_mean            =  -9.2665168448428E-23
(PID.TID 0000.0001) %MON dynstat_wvel_sd              =   2.6380585773743E-05
(PID.TID 0000.0001) %MON dynstat_wvel_del2            =   9.3480816666098E-06
(PID.TID 0000.0001) %MON dynstat_theta_max            =   2.9364581349542E+01
(PID.TID 0000.0001) %MON dynstat_theta_min            =  -2.0070114187820E+00
(PID.TID 0000.0001) %MON dynstat_theta_mean           =   3.5954646253825E+00
(PID.TID 0000.0001) %MON dynstat_theta_sd             =   4.3511773926608E+00
(PID.TID 0000.0001) %MON dynstat_theta_del2           =   1.3979913499593E-01
(PID.TID 0000.0001) %MON dynstat_salt_max             =   3.7411734126899E+01
(PID.TID 0000.0001) %MON dynstat_salt_min             =   2.9794354813105E+01
(PID.TID 0000.0001) %MON dynstat_salt_mean            =   3.4716467781441E+01
(PID.TID 0000.0001) %MON dynstat_salt_sd              =   2.9560505098891E-01
(PID.TID 0000.0001) %MON dynstat_salt_del2            =   2.6165834154214E-02
(PID.TID 0000.0001) %MON dynstat_sst_max              =   2.9364581349542E+01
(PID.TID 0000.0001) %MON dynstat_sst_min              =  -1.9084799450943E+00
(PID.TID 0000.0001) %MON dynstat_sst_mean             =   1.8520216022219E+01
(PID.TID 0000.0001) %MON dynstat_sst_sd               =   8.9438293205217E+00
(PID.TID 0000.0001) %MON dynstat_sst_del2             =   2.7409656740584E-01
(PID.TID 0000.0001) %MON dynstat_sss_max              =   3.7411734126899E+01
(PID.TID 0000.0001) %MON dynstat_sss_min              =   2.9794354813105E+01
(PID.TID 0000.0001) %MON dynstat_sss_mean             =   3.4855088618766E+01
(PID.TID 0000.0001) %MON dynstat_sss_sd               =   9.6495723549048E-01
(PID.TID 0000.0001) %MON dynstat_sss_del2             =   8.1758844949099E-02
(PID.TID 0000.0001) %MON extforcing_qnet_max          =   4.4161361694336E+02
(PID.TID 0000.0001) %MON extforcing_qnet_min          =  -1.8132531738281E+02
(PID.TID 0000.0001) %MON extforcing_qnet_mean         =  -1.6512526001044E+01
(PID.TID 0000.0001) %MON extforcing_qnet_sd           =   1.0987288293460E+02
(PID.TID 0000.0001) %MON extforcing_qnet_del2         =   9.6689454498868E+00
(PID.TID 0000.0001) %MON extforcing_qsw_max           =   0.0000000000000E+00
(PID.TID 0000.0001) %MON extforcing_qsw_min           =   0.0000000000000E+00
(PID.TID 0000.0001) %MON extforcing_qsw_mean          =   0.0000000000000E+00
(PID.TID 0000.0001) %MON extforcing_qsw_sd            =   0.0000000000000E+00
(PID.TID 0000.0001) %MON extforcing_qsw_del2          =   0.0000000000000E+00
(PID.TID 0000.0001) %MON extforcing_empmr_max         =   0.0000000000000E+00
(PID.TID 0000.0001) %MON extforcing_empmr_min         =   0.0000000000000E+00
(PID.TID 0000.0001) %MON extforcing_empmr_mean        =   0.0000000000000E+00
(PID.TID 0000.0001) %MON extforcing_empmr_sd          =   0.0000000000000E+00
(PID.TID 0000.0001) %MON extforcing_empmr_del2        =   0.0000000000000E+00
(PID.TID 0000.0001) %MON extforcing_fu_max            =   2.7877888083458E-01
(PID.TID 0000.0001) %MON extforcing_fu_min            =  -1.7088057100773E-01
(PID.TID 0000.0001) %MON extforcing_fu_mean           =   1.6001735152566E-02
(PID.TID 0000.0001) %MON extforcing_fu_sd             =   9.1062350670783E-02
(PID.TID 0000.0001) %MON extforcing_fu_del2           =   7.6925174727079E-03
(PID.TID 0000.0001) %MON extforcing_fv_max            =   2.3312132060528E-01
(PID.TID 0000.0001) %MON extforcing_fv_min            =  -1.7813690006733E-01
(PID.TID 0000.0001) %MON extforcing_fv_mean           =  -5.2588977395051E-03
(PID.TID 0000.0001) %MON extforcing_fv_sd             =   4.8248606070107E-02
(PID.TID 0000.0001) %MON extforcing_fv_del2           =   4.8562771937866E-03
(PID.TID 0000.0001) %MON advcfl_uvel_max              =   2.3730637285224E-02
(PID.TID 0000.0001) %MON advcfl_vvel_max              =   1.5104743174319E-02
(PID.TID 0000.0001) %MON advcfl_wvel_max              =   1.6889440464691E-01
(PID.TID 0000.0001) %MON advcfl_W_hf_max              =   1.1906870882834E-01
(PID.TID 0000.0001) %MON pe_b_mean                    =   1.6672796239094E-04
(PID.TID 0000.0001) %MON ke_max                       =   1.7779027200008E-02
(PID.TID 0000.0001) %MON ke_mean                      =   2.3289421444689E-04
(PID.TID 0000.0001) %MON ke_vol                       =   1.3226782436723E+18
(PID.TID 0000.0001) %MON vort_r_min                   =  -5.1460928689001E-07
(PID.TID 0000.0001) %MON vort_r_max                   =   4.0080295725911E-07
(PID.TID 0000.0001) %MON vort_a_mean                  =  -2.5205769527352E-05
(PID.TID 0000.0001) %MON vort_a_sd                    =   7.3402622162480E-05
(PID.TID 0000.0001) %MON vort_p_mean                  =  -3.1758669726197E-05
(PID.TID 0000.0001) %MON vort_p_sd                    =   1.3126375591363E-04
(PID.TID 0000.0001) %MON surfExpan_theta_mean         =  -7.8913767058413E-06
(PID.TID 0000.0001) %MON surfExpan_salt_mean          =  -1.5005862653529E-06
(PID.TID 0000.0001) // =======================================================
(PID.TID 0000.0001) // End MONITOR dynamic field statistics
(PID.TID 0000.0001) // =======================================================
time,SST,SSS,fu,fv,Q,E-P,i0,i1,a,b =   1.3392E+06  9.3359E-01  3.4710E+01 -3.5280E-02 -5.6596E-02  2.6535E+02  0.0000E+00     1     2  1.6667E-02  9.8333E-01
time,fu0,fu1,fu =   1.3392E+06 -3.5633E-02 -1.4435E-02 -3.5280E-02  1.666666666666667E-02  9.833333333333333E-01
 cg2d: Sum(rhs),rhsMax =  -1.69077252198946E-12  9.11143504680530E+00
(PID.TID 0000.0001)                    cg2d_init_res =    7.98470174073073E-01
(PID.TID 0000.0001)                       cg2d_iters =    25
(PID.TID 0000.0001)                         cg2d_res =    3.46166099499819E-14
(PID.TID 0000.0001) // =======================================================
(PID.TID 0000.0001) // Begin MONITOR dynamic field statistics
(PID.TID 0000.0001) // =======================================================
(PID.TID 0000.0001) %MON time_tsnumber                =                    32
(PID.TID 0000.0001) %MON time_secondsf                =   1.3824000000000E+06
(PID.TID 0000.0001) %MON dynstat_eta_max              =   1.0198590548569E+00
(PID.TID 0000.0001) %MON dynstat_eta_min              =  -1.0161509694657E+00
(PID.TID 0000.0001) %MON dynstat_eta_mean             =   8.4226967511619E-16
(PID.TID 0000.0001) %MON dynstat_eta_sd               =   3.6142739724244E-01
(PID.TID 0000.0001) %MON dynstat_eta_del2             =   2.2209712872524E-02
(PID.TID 0000.0001) %MON dynstat_uvel_max             =   1.6289837967672E-01
(PID.TID 0000.0001) %MON dynstat_uvel_min             =  -1.6364275202018E-01
(PID.TID 0000.0001) %MON dynstat_uvel_mean            =  -2.7845678992233E-03
(PID.TID 0000.0001) %MON dynstat_uvel_sd              =   1.6341451386766E-02
(PID.TID 0000.0001) %MON dynstat_uvel_del2            =   3.6411526740605E-03
(PID.TID 0000.0001) %MON dynstat_vvel_max             =   1.6233151384333E-01
(PID.TID 0000.0001) %MON dynstat_vvel_min             =  -1.5805224849841E-01
(PID.TID 0000.0001) %MON dynstat_vvel_mean            =   3.7199723420171E-03
(PID.TID 0000.0001) %MON dynstat_vvel_sd              =   1.4633027251930E-02
(PID.TID 0000.0001) %MON dynstat_vvel_del2            =   3.6177277838584E-03
(PID.TID 0000.0001) %MON dynstat_wvel_max             =   2.1074520073615E-04
(PID.TID 0000.0001) %MON dynstat_wvel_min             =  -1.8663612395319E-04
(PID.TID 0000.0001) %MON dynstat_wvel_mean            =  -1.2305659126877E-23
(PID.TID 0000.0001) %MON dynstat_wvel_sd              =   2.6244759204139E-05
(PID.TID 0000.0001) %MON dynstat_wvel_del2            =   9.2650730289857E-06
(PID.TID 0000.0001) %MON dynstat_theta_max            =   2.9388307075896E+01
(PID.TID 0000.0001) %MON dynstat_theta_min            =  -2.0088476891375E+00
(PID.TID 0000.0001) %MON dynstat_theta_mean           =   3.5955759781087E+00
(PID.TID 0000.0001) %MON dynstat_theta_sd             =   4.3520336558595E+00
(PID.TID 0000.0001) %MON dynstat_theta_del2           =   1.3982541215443E-01
(PID.TID 0000.0001) %MON dynstat_salt_max             =   3.7410598364382E+01
(PID.TID 0000.0001) %MON dynstat_salt_min             =   2.9797541125776E+01
(PID.TID 0000.0001) %MON dynstat_salt_mean            =   3.4716480323186E+01
(PID.TID 0000.0001) %MON dynstat_salt_sd              =   2.9557123478272E-01
(PID.TID 0000.0001) %MON dynstat_salt_del2            =   2.6168841654751E-02
(PID.TID 0000.0001) %MON dynstat_sst_max              =   2.9388307075896E+01
(PID.TID 0000.0001) %MON dynstat_sst_min              =  -1.9080705987225E+00
(PID.TID 0000.0001) %MON dynstat_sst_mean             =   1.8522804212469E+01
(PID.TID 0000.0001) %MON dynstat_sst_sd               =   8.9487991471843E+00
(PID.TID 0000.0001) %MON dynstat_sst_del2             =   2.7409243956020E-01
(PID.TID 0000.0001) %MON dynstat_sss_max              =   3.7410598364382E+01
(PID.TID 0000.0001) %MON dynstat_sss_min              =   2.9797541125776E+01
(PID.TID 0000.0001) %MON dynstat_sss_mean             =   3.4854524373205E+01
(PID.TID 0000.0001) %MON dynstat_sss_sd               =   9.6484365679052E-01
(PID.TID 0000.0001) %MON dynstat_sss_del2             =   8.1772560191095E-02
(PID.TID 0000.0001) %MON extforcing_qnet_max          =   4.3995407358805E+02
(PID.TID 0000.0001) %MON extforcing_qnet_min          =  -1.8079741999308E+02
(PID.TID 0000.0001) %MON extforcing_qnet_mean         =  -1.6470071417342E+01
(PID.TID 0000.0001) %MON extforcing_qnet_sd           =   1.0933313020962E+02
(PID.TID 0000.0001) %MON extforcing_qnet_del2         =   9.6427542397483E+00
(PID.TID 0000.0001) %MON extforcing_qsw_max           =   0.0000000000000E+00
(PID.TID 0000.0001) %MON extforcing_qsw_min           =   0.0000000000000E+00
(PID.TID 0000.0001) %MON extforcing_qsw_mean          =   0.0000000000000E+00
(PID.TID 0000.0001) %MON extforcing_qsw_sd            =   0.0000000000000E+00
(PID.TID 0000.0001) %MON extforcing_qsw_del2          =   0.0000000000000E+00
(PID.TID 0000.0001) %MON extforcing_empmr_max         =   0.0000000000000E+00
(PID.TID 0000.0001) %MON extforcing_empmr_min         =   0.0000000000000E+00
(PID.TID 0000.0001) %MON extforcing_empmr_mean        =   0.0000000000000E+00
(PID.TID 0000.0001) %MON extforcing_empmr_sd          =   0.0000000000000E+00
(PID.TID 0000.0001) %MON extforcing_empmr_del2        =   0.0000000000000E+00
(PID.TID 0000.0001) %MON extforcing_fu_max            =   2.7868084311485E-01
(PID.TID 0000.0001) %MON extforcing_fu_min            =  -1.7003387138247E-01
(PID.TID 0000.0001) %MON extforcing_fu_mean           =   1.6028885260300E-02
(PID.TID 0000.0001) %MON extforcing_fu_sd             =   9.0967078603419E-02
(PID.TID 0000.0001) %MON extforcing_fu_del2           =   7.6642672975857E-03
(PID.TID 0000.0001) %MON extforcing_fv_max            =   2.3151709710558E-01
(PID.TID 0000.0001) %MON extforcing_fv_min            =  -1.7764125019312E-01
(PID.TID 0000.0001) %MON extforcing_fv_mean           =  -5.2915281928627E-03
(PID.TID 0000.0001) %MON extforcing_fv_sd             =   4.8087148052495E-02
(PID.TID 0000.0001) %MON extforcing_fv_del2           =   4.8238392069686E-03
(PID.TID 0000.0001) %MON advcfl_uvel_max              =   2.4174193023034E-02
(PID.TID 0000.0001) %MON advcfl_vvel_max              =   1.5769204827642E-02
(PID.TID 0000.0001) %MON advcfl_wvel_max              =   1.9060401380501E-01
(PID.TID 0000.0001) %MON advcfl_W_hf_max              =   1.3451052545745E-01
(PID.TID 0000.0001) %MON pe_b_mean                    =   1.6715652754457E-04
(PID.TID 0000.0001) %MON ke_max                       =   1.7436180544667E-02
(PID.TID 0000.0001) %MON ke_mean                      =   2.2718725849320E-04
(PID.TID 0000.0001) %MON ke_vol                       =   1.3226782436723E+18
(PID.TID 0000.0001) %MON vort_r_min                   =  -4.8009413247640E-07
(PID.TID 0000.0001) %MON vort_r_max                   =   4.0286838737267E-07
(PID.TID 0000.0001) %MON vort_a_mean                  =  -2.5205769526960E-05
(PID.TID 0000.0001) %MON vort_a_sd                    =   7.3402709145034E-05
(PID.TID 0000.0001) %MON vort_p_mean                  =  -3.1758669725703E-05
(PID.TID 0000.0001) %MON vort_p_sd                    =   1.3126393701469E-04
(PID.TID 0000.0001) %MON surfExpan_theta_mean         =  -4.4491807886903E-06
(PID.TID 0000.0001) %MON surfExpan_salt_mean          =  -8.1497013253376E-07
(PID.TID 0000.0001) // =======================================================
(PID.TID 0000.0001) // End MONITOR dynamic field statistics
(PID.TID 0000.0001) // =======================================================
time,SST,SSS,fu,fv,Q,E-P,i0,i1,a,b =   1.3824E+06  9.0875E-01  3.4705E+01 -3.4926E-02 -5.5936E-02  2.6493E+02  0.0000E+00     1     2  3.3333E-02  9.6667E-01
time,fu0,fu1,fu =   1.3824E+06 -3.5633E-02 -1.4435E-02 -3.4926E-02  3.333333333333333E-02  9.666666666666667E-01
 cg2d: Sum(rhs),rhsMax =  -1.43982742395465E-12  9.23484312292805E+00
(PID.TID 0000.0001)                    cg2d_init_res =    7.82865945202847E-01
(PID.TID 0000.0001)                       cg2d_iters =    25
(PID.TID 0000.0001)                         cg2d_res =    3.86457059194925E-14
(PID.TID 0000.0001) // =======================================================
(PID.TID 0000.0001) // Begin MONITOR dynamic field statistics
(PID.TID 0000.0001) // =======================================================
(PID.TID 0000.0001) %MON time_tsnumber                =                    33
(PID.TID 0000.0001) %MON time_secondsf                =   1.4256000000000E+06
(PID.TID 0000.0001) %MON dynstat_eta_max              =   1.0329776898322E+00
(PID.TID 0000.0001) %MON dynstat_eta_min              =  -1.0263284241122E+00
(PID.TID 0000.0001) %MON dynstat_eta_mean             =   9.2275452684567E-16
(PID.TID 0000.0001) %MON dynstat_eta_sd               =   3.6297001233922E-01
(PID.TID 0000.0001) %MON dynstat_eta_del2             =   2.2472799721838E-02
(PID.TID 0000.0001) %MON dynstat_uvel_max             =   1.6370954479523E-01
(PID.TID 0000.0001) %MON dynstat_uvel_min             =  -1.6136317272310E-01
(PID.TID 0000.0001) %MON dynstat_uvel_mean            =  -2.4650225501398E-03
(PID.TID 0000.0001) %MON dynstat_uvel_sd              =   1.5930928352406E-02
(PID.TID 0000.0001) %MON dynstat_uvel_del2            =   3.6023913288255E-03
(PID.TID 0000.0001) %MON dynstat_vvel_max             =   1.6744171675985E-01
(PID.TID 0000.0001) %MON dynstat_vvel_min             =  -1.6044348008578E-01
(PID.TID 0000.0001) %MON dynstat_vvel_mean            =   3.9317419687713E-03
(PID.TID 0000.0001) %MON dynstat_vvel_sd              =   1.4640985956914E-02
(PID.TID 0000.0001) %MON dynstat_vvel_del2            =   3.6023459471853E-03
(PID.TID 0000.0001) %MON dynstat_wvel_max             =   2.0596534469319E-04
(PID.TID 0000.0001) %MON dynstat_wvel_min             =  -1.8233076590596E-04
(PID.TID 0000.0001) %MON dynstat_wvel_mean            =  -1.1781550438994E-22
(PID.TID 0000.0001) %MON dynstat_wvel_sd              =   2.5965891119309E-05
(PID.TID 0000.0001) %MON dynstat_wvel_del2            =   9.1279086632165E-06
(PID.TID 0000.0001) %MON dynstat_theta_max            =   2.9410935865883E+01
(PID.TID 0000.0001) %MON dynstat_theta_min            =  -2.0103285413411E+00
(PID.TID 0000.0001) %MON dynstat_theta_mean           =   3.5956441021398E+00
(PID.TID 0000.0001) %MON dynstat_theta_sd             =   4.3528709491304E+00
(PID.TID 0000.0001) %MON dynstat_theta_del2           =   1.3983819239777E-01
(PID.TID 0000.0001) %MON dynstat_salt_max             =   3.7409452226891E+01
(PID.TID 0000.0001) %MON dynstat_salt_min             =   2.9800872634884E+01
(PID.TID 0000.0001) %MON dynstat_salt_mean            =   3.4716484717218E+01
(PID.TID 0000.0001) %MON dynstat_salt_sd              =   2.9553436769313E-01
(PID.TID 0000.0001) %MON dynstat_salt_del2            =   2.6169840054732E-02
(PID.TID 0000.0001) %MON dynstat_sst_max              =   2.9410935865883E+01
(PID.TID 0000.0001) %MON dynstat_sst_min              =  -1.9215938440961E+00
(PID.TID 0000.0001) %MON dynstat_sst_mean             =   1.8525042975684E+01
(PID.TID 0000.0001) %MON dynstat_sst_sd               =   8.9539970391465E+00
(PID.TID 0000.0001) %MON dynstat_sst_del2             =   2.7408161730199E-01
(PID.TID 0000.0001) %MON dynstat_sss_max              =   3.7409452226891E+01
(PID.TID 0000.0001) %MON dynstat_sss_min              =   2.9800872634884E+01
(PID.TID 0000.0001) %MON dynstat_sss_mean             =   3.4853793565072E+01
(PID.TID 0000.0001) %MON dynstat_sss_sd               =   9.6481616795148E-01
(PID.TID 0000.0001) %MON dynstat_sss_del2             =   8.1775948548536E-02
(PID.TID 0000.0001) %MON extforcing_qnet_max          =   4.3829453023275E+02
(PID.TID 0000.0001) %MON extforcing_qnet_min          =  -1.8026952260335E+02
(PID.TID 0000.0001) %MON extforcing_qnet_mean         =  -1.6427616833641E+01
(PID.TID 0000.0001) %MON extforcing_qnet_sd           =   1.0879423939526E+02
(PID.TID 0000.0001) %MON extforcing_qnet_del2         =   9.6167859194667E+00
(PID.TID 0000.0001) %MON extforcing_qsw_max           =   0.0000000000000E+00
(PID.TID 0000.0001) %MON extforcing_qsw_min           =   0.0000000000000E+00
(PID.TID 0000.0001) %MON extforcing_qsw_mean          =   0.0000000000000E+00
(PID.TID 0000.0001) %MON extforcing_qsw_sd            =   0.0000000000000E+00
(PID.TID 0000.0001) %MON extforcing_qsw_del2          =   0.0000000000000E+00
(PID.TID 0000.0001) %MON extforcing_empmr_max         =   0.0000000000000E+00
(PID.TID 0000.0001) %MON extforcing_empmr_min         =   0.0000000000000E+00
(PID.TID 0000.0001) %MON extforcing_empmr_mean        =   0.0000000000000E+00
(PID.TID 0000.0001) %MON extforcing_empmr_sd          =   0.0000000000000E+00
(PID.TID 0000.0001) %MON extforcing_empmr_del2        =   0.0000000000000E+00
(PID.TID 0000.0001) %MON extforcing_fu_max            =   2.7858280539513E-01
(PID.TID 0000.0001) %MON extforcing_fu_min            =  -1.6918717175722E-01
(PID.TID 0000.0001) %MON extforcing_fu_mean           =   1.6056035368035E-02
(PID.TID 0000.0001) %MON extforcing_fu_sd             =   9.0876058187851E-02
(PID.TID 0000.0001) %MON extforcing_fu_del2           =   7.6368916193188E-03
(PID.TID 0000.0001) %MON extforcing_fv_max            =   2.2991287360589E-01
(PID.TID 0000.0001) %MON extforcing_fv_min            =  -1.7714560031891E-01
(PID.TID 0000.0001) %MON extforcing_fv_mean           =  -5.3241586462203E-03
(PID.TID 0000.0001) %MON extforcing_fv_sd             =   4.7928888739260E-02
(PID.TID 0000.0001) %MON extforcing_fv_del2           =   4.7920175668637E-03
(PID.TID 0000.0001) %MON advcfl_uvel_max              =   2.4213362519346E-02
(PID.TID 0000.0001) %MON advcfl_vvel_max              =   1.6265620062080E-02
(PID.TID 0000.0001) %MON advcfl_wvel_max              =   2.0602985731871E-01
(PID.TID 0000.0001) %MON advcfl_W_hf_max              =   1.4550642964385E-01
(PID.TID 0000.0001) %MON pe_b_mean                    =   1.6858646046928E-04
(PID.TID 0000.0001) %MON ke_max                       =   1.6927277000209E-02
(PID.TID 0000.0001) %MON ke_mean                      =   2.2123819911908E-04
(PID.TID 0000.0001) %MON ke_vol                       =   1.3226782436723E+18
(PID.TID 0000.0001) %MON vort_r_min                   =  -4.3931743237604E-07
(PID.TID 0000.0001) %MON vort_r_max                   =   4.0893719369199E-07
(PID.TID 0000.0001) %MON vort_a_mean                  =  -2.5205769516397E-05
(PID.TID 0000.0001) %MON vort_a_sd                    =   7.3402785593483E-05
(PID.TID 0000.0001) %MON vort_p_mean                  =  -3.1758669712393E-05
(PID.TID 0000.0001) %MON vort_p_sd                    =   1.3126408722179E-04
(PID.TID 0000.0001) %MON surfExpan_theta_mean         =  -5.6358572582939E-07
(PID.TID 0000.0001) %MON surfExpan_salt_mean          =  -9.5582618509326E-08
(PID.TID 0000.0001) // =======================================================
(PID.TID 0000.0001) // End MONITOR dynamic field statistics
(PID.TID 0000.0001) // =======================================================
time,SST,SSS,fu,fv,Q,E-P,i0,i1,a,b =   1.4256E+06  8.8391E-01  3.4700E+01 -3.4573E-02 -5.5276E-02  2.6451E+02  0.0000E+00     1     2  5.0000E-02  9.5000E-01
time,fu0,fu1,fu =   1.4256E+06 -3.5633E-02 -1.4435E-02 -3.4573E-02  5.000000000000000E-02  9.500000000000000E-01
 cg2d: Sum(rhs),rhsMax =  -1.28025368084650E-12  9.27184087685194E+00
(PID.TID 0000.0001)                    cg2d_init_res =    7.65655871015087E-01
(PID.TID 0000.0001)                       cg2d_iters =    25
(PID.TID 0000.0001)                         cg2d_res =    4.21832300046298E-14
(PID.TID 0000.0001) // =======================================================
(PID.TID 0000.0001) // Begin MONITOR dynamic field statistics
(PID.TID 0000.0001) // =======================================================
(PID.TID 0000.0001) %MON time_tsnumber                =                    34
(PID.TID 0000.0001) %MON time_secondsf                =   1.4688000000000E+06
(PID.TID 0000.0001) %MON dynstat_eta_max              =   1.0365010126825E+00
(PID.TID 0000.0001) %MON dynstat_eta_min              =  -1.0336992761918E+00
(PID.TID 0000.0001) %MON dynstat_eta_mean             =   5.6549178273295E-16
(PID.TID 0000.0001) %MON dynstat_eta_sd               =   3.6555561377498E-01
(PID.TID 0000.0001) %MON dynstat_eta_del2             =   2.2692517471932E-02
(PID.TID 0000.0001) %MON dynstat_uvel_max             =   1.7191940658823E-01
(PID.TID 0000.0001) %MON dynstat_uvel_min             =  -1.5885403738130E-01
(PID.TID 0000.0001) %MON dynstat_uvel_mean            =  -2.2056979603909E-03
(PID.TID 0000.0001) %MON dynstat_uvel_sd              =   1.5526337224580E-02
(PID.TID 0000.0001) %MON dynstat_uvel_del2            =   3.5631964081358E-03
(PID.TID 0000.0001) %MON dynstat_vvel_max             =   1.7070296961213E-01
(PID.TID 0000.0001) %MON dynstat_vvel_min             =  -1.5929523274117E-01
(PID.TID 0000.0001) %MON dynstat_vvel_mean            =   4.1128010323340E-03
(PID.TID 0000.0001) %MON dynstat_vvel_sd              =   1.4604768536586E-02
(PID.TID 0000.0001) %MON dynstat_vvel_del2            =   3.5789257018576E-03
(PID.TID 0000.0001) %MON dynstat_wvel_max             =   2.0108146110016E-04
(PID.TID 0000.0001) %MON dynstat_wvel_min             =  -1.7982887923981E-04
(PID.TID 0000.0001) %MON dynstat_wvel_mean            =  -3.3533781255347E-23
(PID.TID 0000.0001) %MON dynstat_wvel_sd              =   2.5544464349486E-05
(PID.TID 0000.0001) %MON dynstat_wvel_del2            =   8.9475946867115E-06
(PID.TID 0000.0001) %MON dynstat_theta_max            =   2.9431978878547E+01
(PID.TID 0000.0001) %MON dynstat_theta_min            =  -2.0114383997565E+00
(PID.TID 0000.0001) %MON dynstat_theta_mean           =   3.5956655002273E+00
(PID.TID 0000.0001) %MON dynstat_theta_sd             =   4.3536505323645E+00
(PID.TID 0000.0001) %MON dynstat_theta_del2           =   1.3984111655441E-01
(PID.TID 0000.0001) %MON dynstat_salt_max             =   3.7408322612750E+01
(PID.TID 0000.0001) %MON dynstat_salt_min             =   2.9804289598751E+01
(PID.TID 0000.0001) %MON dynstat_salt_mean            =   3.4716480805380E+01
(PID.TID 0000.0001) %MON dynstat_salt_sd              =   2.9549445904580E-01
(PID.TID 0000.0001) %MON dynstat_salt_del2            =   2.6173121361060E-02
(PID.TID 0000.0001) %MON dynstat_sst_max              =   2.9431978878547E+01
(PID.TID 0000.0001) %MON dynstat_sst_min              =  -1.9442237843296E+00
(PID.TID 0000.0001) %MON dynstat_sst_mean             =   1.8527414113054E+01
(PID.TID 0000.0001) %MON dynstat_sst_sd               =   8.9585158351614E+00
(PID.TID 0000.0001) %MON dynstat_sst_del2             =   2.7382746146034E-01
(PID.TID 0000.0001) %MON dynstat_sss_max              =   3.7408322612750E+01
(PID.TID 0000.0001) %MON dynstat_sss_min              =   2.9804289598751E+01
(PID.TID 0000.0001) %MON dynstat_sss_mean             =   3.4852973638480E+01
(PID.TID 0000.0001) %MON dynstat_sss_sd               =   9.6482849090503E-01
(PID.TID 0000.0001) %MON dynstat_sss_del2             =   8.1786301069437E-02
(PID.TID 0000.0001) %MON extforcing_qnet_max          =   4.3663498687744E+02
(PID.TID 0000.0001) %MON extforcing_qnet_min          =  -1.7974162521362E+02
(PID.TID 0000.0001) %MON extforcing_qnet_mean         =  -1.6385162249939E+01
(PID.TID 0000.0001) %MON extforcing_qnet_sd           =   1.0825622336309E+02
(PID.TID 0000.0001) %MON extforcing_qnet_del2         =   9.5910463469763E+00
(PID.TID 0000.0001) %MON extforcing_qsw_max           =   0.0000000000000E+00
(PID.TID 0000.0001) %MON extforcing_qsw_min           =   0.0000000000000E+00
(PID.TID 0000.0001) %MON extforcing_qsw_mean          =   0.0000000000000E+00
(PID.TID 0000.0001) %MON extforcing_qsw_sd            =   0.0000000000000E+00
(PID.TID 0000.0001) %MON extforcing_qsw_del2          =   0.0000000000000E+00
(PID.TID 0000.0001) %MON extforcing_empmr_max         =   0.0000000000000E+00
(PID.TID 0000.0001) %MON extforcing_empmr_min         =   0.0000000000000E+00
(PID.TID 0000.0001) %MON extforcing_empmr_mean        =   0.0000000000000E+00
(PID.TID 0000.0001) %MON extforcing_empmr_sd          =   0.0000000000000E+00
(PID.TID 0000.0001) %MON extforcing_empmr_del2        =   0.0000000000000E+00
(PID.TID 0000.0001) %MON extforcing_fu_max            =   2.7848476767540E-01
(PID.TID 0000.0001) %MON extforcing_fu_min            =  -1.6842452287674E-01
(PID.TID 0000.0001) %MON extforcing_fu_mean           =   1.6083185475769E-02
(PID.TID 0000.0001) %MON extforcing_fu_sd             =   9.0789302211503E-02
(PID.TID 0000.0001) %MON extforcing_fu_del2           =   7.6110413546120E-03
(PID.TID 0000.0001) %MON extforcing_fv_max            =   2.2830865010619E-01
(PID.TID 0000.0001) %MON extforcing_fv_min            =  -1.7664995044470E-01
(PID.TID 0000.0001) %MON extforcing_fv_mean           =  -5.3567890995779E-03
(PID.TID 0000.0001) %MON extforcing_fv_sd             =   4.7773859919224E-02
(PID.TID 0000.0001) %MON extforcing_fv_del2           =   4.7611585574372E-03
(PID.TID 0000.0001) %MON advcfl_uvel_max              =   2.4093893123908E-02
(PID.TID 0000.0001) %MON advcfl_vvel_max              =   1.6582424624576E-02
(PID.TID 0000.0001) %MON advcfl_wvel_max              =   2.1454721467651E-01
(PID.TID 0000.0001) %MON advcfl_W_hf_max              =   1.5161087711839E-01
(PID.TID 0000.0001) %MON pe_b_mean                    =   1.7099685211396E-04
(PID.TID 0000.0001) %MON ke_max                       =   1.6255734620716E-02
(PID.TID 0000.0001) %MON ke_mean                      =   2.1508407852522E-04
(PID.TID 0000.0001) %MON ke_vol                       =   1.3226782436723E+18
(PID.TID 0000.0001) %MON vort_r_min                   =  -4.2246788778728E-07
(PID.TID 0000.0001) %MON vort_r_max                   =   4.3616986548775E-07
(PID.TID 0000.0001) %MON vort_a_mean                  =  -2.5205769496047E-05
(PID.TID 0000.0001) %MON vort_a_sd                    =   7.3402851113129E-05
(PID.TID 0000.0001) %MON vort_p_mean                  =  -3.1758669686753E-05
(PID.TID 0000.0001) %MON vort_p_sd                    =   1.3126420733125E-04
(PID.TID 0000.0001) %MON surfExpan_theta_mean         =   3.5748628550051E-06
(PID.TID 0000.0001) %MON surfExpan_salt_mean          =   6.2488060645127E-07
(PID.TID 0000.0001) // =======================================================
(PID.TID 0000.0001) // End MONITOR dynamic field statistics
(PID.TID 0000.0001) // =======================================================
time,SST,SSS,fu,fv,Q,E-P,i0,i1,a,b =   1.4688E+06  8.5907E-01  3.4695E+01 -3.4220E-02 -5.4615E-02  2.6408E+02  0.0000E+00     1     2  6.6667E-02  9.3333E-01
time,fu0,fu1,fu =   1.4688E+06 -3.5633E-02 -1.4435E-02 -3.4220E-02  6.666666666666667E-02  9.333333333333333E-01
 cg2d: Sum(rhs),rhsMax =  -8.80122363877689E-13  9.21972070819477E+00
(PID.TID 0000.0001)                    cg2d_init_res =    7.47898503188874E-01
(PID.TID 0000.0001)                       cg2d_iters =    25
(PID.TID 0000.0001)                         cg2d_res =    4.50111128083815E-14
(PID.TID 0000.0001) // =======================================================
(PID.TID 0000.0001) // Begin MONITOR dynamic field statistics
(PID.TID 0000.0001) // =======================================================
(PID.TID 0000.0001) %MON time_tsnumber                =                    35
(PID.TID 0000.0001) %MON time_secondsf                =   1.5120000000000E+06
(PID.TID 0000.0001) %MON dynstat_eta_max              =   1.0301400302565E+00
(PID.TID 0000.0001) %MON dynstat_eta_min              =  -1.0384478286559E+00
(PID.TID 0000.0001) %MON dynstat_eta_mean             =   8.6662632775376E-16
(PID.TID 0000.0001) %MON dynstat_eta_sd               =   3.6906796463218E-01
(PID.TID 0000.0001) %MON dynstat_eta_del2             =   2.2881381767461E-02
(PID.TID 0000.0001) %MON dynstat_uvel_max             =   1.7466284034497E-01
(PID.TID 0000.0001) %MON dynstat_uvel_min             =  -1.6257160890538E-01
(PID.TID 0000.0001) %MON dynstat_uvel_mean            =  -2.0046231981906E-03
(PID.TID 0000.0001) %MON dynstat_uvel_sd              =   1.5140223837006E-02
(PID.TID 0000.0001) %MON dynstat_uvel_del2            =   3.5226675392596E-03
(PID.TID 0000.0001) %MON dynstat_vvel_max             =   1.7207342295502E-01
(PID.TID 0000.0001) %MON dynstat_vvel_min             =  -1.5461498306670E-01
(PID.TID 0000.0001) %MON dynstat_vvel_mean            =   4.2566790206422E-03
(PID.TID 0000.0001) %MON dynstat_vvel_sd              =   1.4524863289028E-02
(PID.TID 0000.0001) %MON dynstat_vvel_del2            =   3.5496746750500E-03
(PID.TID 0000.0001) %MON dynstat_wvel_max             =   1.9600067203964E-04
(PID.TID 0000.0001) %MON dynstat_wvel_min             =  -1.7692758811956E-04
(PID.TID 0000.0001) %MON dynstat_wvel_mean            =  -8.9224630015937E-24
(PID.TID 0000.0001) %MON dynstat_wvel_sd              =   2.4997753095650E-05
(PID.TID 0000.0001) %MON dynstat_wvel_del2            =   8.7323871044631E-06
(PID.TID 0000.0001) %MON dynstat_theta_max            =   2.9451074835268E+01
(PID.TID 0000.0001) %MON dynstat_theta_min            =  -2.0139499536859E+00
(PID.TID 0000.0001) %MON dynstat_theta_mean           =   3.5956386576019E+00
(PID.TID 0000.0001) %MON dynstat_theta_sd             =   4.3543382522653E+00
(PID.TID 0000.0001) %MON dynstat_theta_del2           =   1.3984403946808E-01
(PID.TID 0000.0001) %MON dynstat_salt_max             =   3.7407237965333E+01
(PID.TID 0000.0001) %MON dynstat_salt_min             =   2.9807734119920E+01
(PID.TID 0000.0001) %MON dynstat_salt_mean            =   3.4716468798182E+01
(PID.TID 0000.0001) %MON dynstat_salt_sd              =   2.9545172276945E-01
(PID.TID 0000.0001) %MON dynstat_salt_del2            =   2.6173656900604E-02
(PID.TID 0000.0001) %MON dynstat_sst_max              =   2.9451074835268E+01
(PID.TID 0000.0001) %MON dynstat_sst_min              =  -1.9514660460191E+00
(PID.TID 0000.0001) %MON dynstat_sst_mean             =   1.8529609782466E+01
(PID.TID 0000.0001) %MON dynstat_sst_sd               =   8.9626654049213E+00
(PID.TID 0000.0001) %MON dynstat_sst_del2             =   2.7388238385741E-01
(PID.TID 0000.0001) %MON dynstat_sss_max              =   3.7407237965333E+01
(PID.TID 0000.0001) %MON dynstat_sss_min              =   2.9807734119920E+01
(PID.TID 0000.0001) %MON dynstat_sss_mean             =   3.4852028683075E+01
(PID.TID 0000.0001) %MON dynstat_sss_sd               =   9.6489368189269E-01
(PID.TID 0000.0001) %MON dynstat_sss_del2             =   8.1819216019238E-02
(PID.TID 0000.0001) %MON extforcing_qnet_max          =   4.3497544352214E+02
(PID.TID 0000.0001) %MON extforcing_qnet_min          =  -1.7954050801595E+02
(PID.TID 0000.0001) %MON extforcing_qnet_mean         =  -1.6342707666237E+01
(PID.TID 0000.0001) %MON extforcing_qnet_sd           =   1.0771909522073E+02
(PID.TID 0000.0001) %MON extforcing_qnet_del2         =   9.5655196170201E+00
(PID.TID 0000.0001) %MON extforcing_qsw_max           =   0.0000000000000E+00
(PID.TID 0000.0001) %MON extforcing_qsw_min           =   0.0000000000000E+00
(PID.TID 0000.0001) %MON extforcing_qsw_mean          =   0.0000000000000E+00
(PID.TID 0000.0001) %MON extforcing_qsw_sd            =   0.0000000000000E+00
(PID.TID 0000.0001) %MON extforcing_qsw_del2          =   0.0000000000000E+00
(PID.TID 0000.0001) %MON extforcing_empmr_max         =   0.0000000000000E+00
(PID.TID 0000.0001) %MON extforcing_empmr_min         =   0.0000000000000E+00
(PID.TID 0000.0001) %MON extforcing_empmr_mean        =   0.0000000000000E+00
(PID.TID 0000.0001) %MON extforcing_empmr_sd          =   0.0000000000000E+00
(PID.TID 0000.0001) %MON extforcing_empmr_del2        =   0.0000000000000E+00
(PID.TID 0000.0001) %MON extforcing_fu_max            =   2.7838672995567E-01
(PID.TID 0000.0001) %MON extforcing_fu_min            =  -1.6925448477268E-01
(PID.TID 0000.0001) %MON extforcing_fu_mean           =   1.6110335583504E-02
(PID.TID 0000.0001) %MON extforcing_fu_sd             =   9.0706822910468E-02
(PID.TID 0000.0001) %MON extforcing_fu_del2           =   7.5864984588548E-03
(PID.TID 0000.0001) %MON extforcing_fv_max            =   2.2670442660650E-01
(PID.TID 0000.0001) %MON extforcing_fv_min            =  -1.7615430057049E-01
(PID.TID 0000.0001) %MON extforcing_fv_mean           =  -5.3894195529355E-03
(PID.TID 0000.0001) %MON extforcing_fv_sd             =   4.7622093142011E-02
(PID.TID 0000.0001) %MON extforcing_fv_del2           =   4.7317211388426E-03
(PID.TID 0000.0001) %MON advcfl_uvel_max              =   2.3974262573288E-02
(PID.TID 0000.0001) %MON advcfl_vvel_max              =   1.6715553177124E-02
(PID.TID 0000.0001) %MON advcfl_wvel_max              =   2.1576919576664E-01
(PID.TID 0000.0001) %MON advcfl_W_hf_max              =   1.5254679367551E-01
(PID.TID 0000.0001) %MON pe_b_mean                    =   1.7429860035846E-04
(PID.TID 0000.0001) %MON ke_max                       =   1.5430214505190E-02
(PID.TID 0000.0001) %MON ke_mean                      =   2.0881566390551E-04
(PID.TID 0000.0001) %MON ke_vol                       =   1.3226782436723E+18
(PID.TID 0000.0001) %MON vort_r_min                   =  -4.1005536821425E-07
(PID.TID 0000.0001) %MON vort_r_max                   =   4.5248648920525E-07
(PID.TID 0000.0001) %MON vort_a_mean                  =  -2.5205769467044E-05
(PID.TID 0000.0001) %MON vort_a_sd                    =   7.3402905639716E-05
(PID.TID 0000.0001) %MON vort_p_mean                  =  -3.1758669650210E-05
(PID.TID 0000.0001) %MON vort_p_sd                    =   1.3126429864983E-04
(PID.TID 0000.0001) %MON surfExpan_theta_mean         =   7.7998225187626E-06
(PID.TID 0000.0001) %MON surfExpan_salt_mean          =   1.3166341802473E-06
(PID.TID 0000.0001) // =======================================================
(PID.TID 0000.0001) // End MONITOR dynamic field statistics
(PID.TID 0000.0001) // =======================================================
time,SST,SSS,fu,fv,Q,E-P,i0,i1,a,b =   1.5120E+06  8.3424E-01  3.4690E+01 -3.3866E-02 -5.3955E-02  2.6366E+02  0.0000E+00     1     2  8.3333E-02  9.1667E-01
time,fu0,fu1,fu =   1.5120E+06 -3.5633E-02 -1.4435E-02 -3.3866E-02  8.333333333333333E-02  9.166666666666666E-01
 cg2d: Sum(rhs),rhsMax =  -9.64901769595627E-13  9.07797514894407E+00
(PID.TID 0000.0001)                    cg2d_init_res =    7.31850154586309E-01
(PID.TID 0000.0001)                       cg2d_iters =    25
(PID.TID 0000.0001)                         cg2d_res =    4.71069217772876E-14
(PID.TID 0000.0001) // =======================================================
(PID.TID 0000.0001) // Begin MONITOR dynamic field statistics
(PID.TID 0000.0001) // =======================================================
(PID.TID 0000.0001) %MON time_tsnumber                =                    36
(PID.TID 0000.0001) %MON time_secondsf                =   1.5552000000000E+06
(PID.TID 0000.0001) %MON dynstat_eta_max              =   1.0138432533606E+00
(PID.TID 0000.0001) %MON dynstat_eta_min              =  -1.0409101720856E+00
(PID.TID 0000.0001) %MON dynstat_eta_mean             =   4.6560651225773E-16
(PID.TID 0000.0001) %MON dynstat_eta_sd               =   3.7333015248900E-01
(PID.TID 0000.0001) %MON dynstat_eta_del2             =   2.3101848799082E-02
(PID.TID 0000.0001) %MON dynstat_uvel_max             =   1.7173735040339E-01
(PID.TID 0000.0001) %MON dynstat_uvel_min             =  -1.6604442839323E-01
(PID.TID 0000.0001) %MON dynstat_uvel_mean            =  -1.8582754130077E-03
(PID.TID 0000.0001) %MON dynstat_uvel_sd              =   1.4784909655249E-02
(PID.TID 0000.0001) %MON dynstat_uvel_del2            =   3.4823011913296E-03
(PID.TID 0000.0001) %MON dynstat_vvel_max             =   1.7167997537360E-01
(PID.TID 0000.0001) %MON dynstat_vvel_min             =  -1.4704066807171E-01
(PID.TID 0000.0001) %MON dynstat_vvel_mean            =   4.3583450281451E-03
(PID.TID 0000.0001) %MON dynstat_vvel_sd              =   1.4405280914764E-02
(PID.TID 0000.0001) %MON dynstat_vvel_del2            =   3.5152982988506E-03
(PID.TID 0000.0001) %MON dynstat_wvel_max             =   1.9066587875163E-04
(PID.TID 0000.0001) %MON dynstat_wvel_min             =  -1.7354531860409E-04
(PID.TID 0000.0001) %MON dynstat_wvel_mean            =  -4.3779704707305E-22
(PID.TID 0000.0001) %MON dynstat_wvel_sd              =   2.4357791697654E-05
(PID.TID 0000.0001) %MON dynstat_wvel_del2            =   8.4907893101251E-06
(PID.TID 0000.0001) %MON dynstat_theta_max            =   2.9486654611762E+01
(PID.TID 0000.0001) %MON dynstat_theta_min            =  -2.0225679885429E+00
(PID.TID 0000.0001) %MON dynstat_theta_mean           =   3.5955637113816E+00
(PID.TID 0000.0001) %MON dynstat_theta_sd             =   4.3549053676404E+00
(PID.TID 0000.0001) %MON dynstat_theta_del2           =   1.3983687810777E-01
(PID.TID 0000.0001) %MON dynstat_salt_max             =   3.7406226037880E+01
(PID.TID 0000.0001) %MON dynstat_salt_min             =   2.9811153250200E+01
(PID.TID 0000.0001) %MON dynstat_salt_mean            =   3.4716449225904E+01
(PID.TID 0000.0001) %MON dynstat_salt_sd              =   2.9540639949487E-01
(PID.TID 0000.0001) %MON dynstat_salt_del2            =   2.6172312641031E-02
(PID.TID 0000.0001) %MON dynstat_sst_max              =   2.9486654611762E+01
(PID.TID 0000.0001) %MON dynstat_sst_min              =  -1.9524688809262E+00
(PID.TID 0000.0001) %MON dynstat_sst_mean             =   1.8531811348256E+01
(PID.TID 0000.0001) %MON dynstat_sst_sd               =   8.9661031078688E+00
(PID.TID 0000.0001) %MON dynstat_sst_del2             =   2.7393786926733E-01
(PID.TID 0000.0001) %MON dynstat_sss_max              =   3.7406226037880E+01
(PID.TID 0000.0001) %MON dynstat_sss_min              =   2.9811153250200E+01
(PID.TID 0000.0001) %MON dynstat_sss_mean             =   3.4851006175953E+01
(PID.TID 0000.0001) %MON dynstat_sss_sd               =   9.6503000694262E-01
(PID.TID 0000.0001) %MON dynstat_sss_del2             =   8.1838601346826E-02
(PID.TID 0000.0001) %MON extforcing_qnet_max          =   4.3331590016683E+02
(PID.TID 0000.0001) %MON extforcing_qnet_min          =  -1.7942074839274E+02
(PID.TID 0000.0001) %MON extforcing_qnet_mean         =  -1.6300253082536E+01
(PID.TID 0000.0001) %MON extforcing_qnet_sd           =   1.0718286831669E+02
(PID.TID 0000.0001) %MON extforcing_qnet_del2         =   9.5402517261256E+00
(PID.TID 0000.0001) %MON extforcing_qsw_max           =   0.0000000000000E+00
(PID.TID 0000.0001) %MON extforcing_qsw_min           =   0.0000000000000E+00
(PID.TID 0000.0001) %MON extforcing_qsw_mean          =   0.0000000000000E+00
(PID.TID 0000.0001) %MON extforcing_qsw_sd            =   0.0000000000000E+00
(PID.TID 0000.0001) %MON extforcing_qsw_del2          =   0.0000000000000E+00
(PID.TID 0000.0001) %MON extforcing_empmr_max         =   0.0000000000000E+00
(PID.TID 0000.0001) %MON extforcing_empmr_min         =   0.0000000000000E+00
(PID.TID 0000.0001) %MON extforcing_empmr_mean        =   0.0000000000000E+00
(PID.TID 0000.0001) %MON extforcing_empmr_sd          =   0.0000000000000E+00
(PID.TID 0000.0001) %MON extforcing_empmr_del2        =   0.0000000000000E+00
(PID.TID 0000.0001) %MON extforcing_fu_max            =   2.7828869223595E-01
(PID.TID 0000.0001) %MON extforcing_fu_min            =  -1.7008444666862E-01
(PID.TID 0000.0001) %MON extforcing_fu_mean           =   1.6137485691238E-02
(PID.TID 0000.0001) %MON extforcing_fu_sd             =   9.0628631961093E-02
(PID.TID 0000.0001) %MON extforcing_fu_del2           =   7.5629689694266E-03
(PID.TID 0000.0001) %MON extforcing_fv_max            =   2.2510020310680E-01
(PID.TID 0000.0001) %MON extforcing_fv_min            =  -1.7565865069628E-01
(PID.TID 0000.0001) %MON extforcing_fv_mean           =  -5.4220500062931E-03
(PID.TID 0000.0001) %MON extforcing_fv_sd             =   4.7473619692569E-02
(PID.TID 0000.0001) %MON extforcing_fv_del2           =   4.7030270620819E-03
(PID.TID 0000.0001) %MON advcfl_uvel_max              =   2.3581413964946E-02
(PID.TID 0000.0001) %MON advcfl_vvel_max              =   1.6677332899659E-02
(PID.TID 0000.0001) %MON advcfl_wvel_max              =   2.0956488449286E-01
(PID.TID 0000.0001) %MON advcfl_W_hf_max              =   1.4821863617335E-01
(PID.TID 0000.0001) %MON pe_b_mean                    =   1.7834762714001E-04
(PID.TID 0000.0001) %MON ke_max                       =   1.5194874647076E-02
(PID.TID 0000.0001) %MON ke_mean                      =   2.0256824714497E-04
(PID.TID 0000.0001) %MON ke_vol                       =   1.3226782436723E+18
(PID.TID 0000.0001) %MON vort_r_min                   =  -3.8855906821616E-07
(PID.TID 0000.0001) %MON vort_r_max                   =   4.5715507966864E-07
(PID.TID 0000.0001) %MON vort_a_mean                  =  -2.5205769431051E-05
(PID.TID 0000.0001) %MON vort_a_sd                    =   7.3402949423125E-05
(PID.TID 0000.0001) %MON vort_p_mean                  =  -3.1758669604859E-05
(PID.TID 0000.0001) %MON vort_p_sd                    =   1.3126436299329E-04
(PID.TID 0000.0001) %MON surfExpan_theta_mean         =   1.1956377805314E-05
(PID.TID 0000.0001) %MON surfExpan_salt_mean          =   1.9527846684919E-06
(PID.TID 0000.0001) // =======================================================
(PID.TID 0000.0001) // End MONITOR dynamic field statistics
(PID.TID 0000.0001) // =======================================================
time,SST,SSS,fu,fv,Q,E-P,i0,i1,a,b =   1.5552E+06  8.0940E-01  3.4685E+01 -3.3513E-02 -5.3295E-02  2.6324E+02  0.0000E+00     1     2  1.0000E-01  9.0000E-01
time,fu0,fu1,fu =   1.5552E+06 -3.5633E-02 -1.4435E-02 -3.3513E-02  1.000000000000000E-01  9.000000000000000E-01
 cg2d: Sum(rhs),rhsMax =  -1.08107967022875E-12  8.84823931929408E+00
(PID.TID 0000.0001)                    cg2d_init_res =    7.20721194660337E-01
(PID.TID 0000.0001)                       cg2d_iters =    25
(PID.TID 0000.0001)                         cg2d_res =    4.86483545105463E-14
(PID.TID 0000.0001) // =======================================================
(PID.TID 0000.0001) // Begin MONITOR dynamic field statistics
(PID.TID 0000.0001) // =======================================================
(PID.TID 0000.0001) %MON time_tsnumber                =                    37
(PID.TID 0000.0001) %MON time_secondsf                =   1.5984000000000E+06
(PID.TID 0000.0001) %MON dynstat_eta_max              =   9.8779140679135E-01
(PID.TID 0000.0001) %MON dynstat_eta_min              =  -1.0416979152176E+00
(PID.TID 0000.0001) %MON dynstat_eta_mean             =   7.7281872310735E-16
(PID.TID 0000.0001) %MON dynstat_eta_sd               =   3.7813173535824E-01
(PID.TID 0000.0001) %MON dynstat_eta_del2             =   2.3382191469917E-02
(PID.TID 0000.0001) %MON dynstat_uvel_max             =   1.6315060163874E-01
(PID.TID 0000.0001) %MON dynstat_uvel_min             =  -1.6926596241812E-01
(PID.TID 0000.0001) %MON dynstat_uvel_mean            =  -1.7618115999278E-03
(PID.TID 0000.0001) %MON dynstat_uvel_sd              =   1.4471571717139E-02
(PID.TID 0000.0001) %MON dynstat_uvel_del2            =   3.4402277600330E-03
(PID.TID 0000.0001) %MON dynstat_vvel_max             =   1.6910359330227E-01
(PID.TID 0000.0001) %MON dynstat_vvel_min             =  -1.3701622742910E-01
(PID.TID 0000.0001) %MON dynstat_vvel_mean            =   4.4142231459397E-03
(PID.TID 0000.0001) %MON dynstat_vvel_sd              =   1.4252900380643E-02
(PID.TID 0000.0001) %MON dynstat_vvel_del2            =   3.4763733068117E-03
(PID.TID 0000.0001) %MON dynstat_wvel_max             =   1.8506780546145E-04
(PID.TID 0000.0001) %MON dynstat_wvel_min             =  -1.6961875116232E-04
(PID.TID 0000.0001) %MON dynstat_wvel_mean            =   5.6208649794680E-22
(PID.TID 0000.0001) %MON dynstat_wvel_sd              =   2.3667499992402E-05
(PID.TID 0000.0001) %MON dynstat_wvel_del2            =   8.2410153953629E-06
(PID.TID 0000.0001) %MON dynstat_theta_max            =   2.9520468173476E+01
(PID.TID 0000.0001) %MON dynstat_theta_min            =  -2.0285835411601E+00
(PID.TID 0000.0001) %MON dynstat_theta_mean           =   3.5954423707273E+00
(PID.TID 0000.0001) %MON dynstat_theta_sd             =   4.3553290347206E+00
(PID.TID 0000.0001) %MON dynstat_theta_del2           =   1.3982533888212E-01
(PID.TID 0000.0001) %MON dynstat_salt_max             =   3.7405311873638E+01
(PID.TID 0000.0001) %MON dynstat_salt_min             =   2.9814500627805E+01
(PID.TID 0000.0001) %MON dynstat_salt_mean            =   3.4716422898829E+01
(PID.TID 0000.0001) %MON dynstat_salt_sd              =   2.9535892462319E-01
(PID.TID 0000.0001) %MON dynstat_salt_del2            =   2.6167644180150E-02
(PID.TID 0000.0001) %MON dynstat_sst_max              =   2.9520468173476E+01
(PID.TID 0000.0001) %MON dynstat_sst_min              =  -1.9521755944259E+00
(PID.TID 0000.0001) %MON dynstat_sst_mean             =   1.8533853325753E+01
(PID.TID 0000.0001) %MON dynstat_sst_sd               =   8.9691401416253E+00
(PID.TID 0000.0001) %MON dynstat_sst_del2             =   2.7404032860502E-01
(PID.TID 0000.0001) %MON dynstat_sss_max              =   3.7405311764895E+01
(PID.TID 0000.0001) %MON dynstat_sss_min              =   2.9814500627805E+01
(PID.TID 0000.0001) %MON dynstat_sss_mean             =   3.4849919585894E+01
(PID.TID 0000.0001) %MON dynstat_sss_sd               =   9.6522259340853E-01
(PID.TID 0000.0001) %MON dynstat_sss_del2             =   8.1843773298393E-02
(PID.TID 0000.0001) %MON extforcing_qnet_max          =   4.3165635681152E+02
(PID.TID 0000.0001) %MON extforcing_qnet_min          =  -1.7930098876953E+02
(PID.TID 0000.0001) %MON extforcing_qnet_mean         =  -1.6257798498834E+01
(PID.TID 0000.0001) %MON extforcing_qnet_sd           =   1.0664755624532E+02
(PID.TID 0000.0001) %MON extforcing_qnet_del2         =   9.5151582064678E+00
(PID.TID 0000.0001) %MON extforcing_qsw_max           =   0.0000000000000E+00
(PID.TID 0000.0001) %MON extforcing_qsw_min           =   0.0000000000000E+00
(PID.TID 0000.0001) %MON extforcing_qsw_mean          =   0.0000000000000E+00
(PID.TID 0000.0001) %MON extforcing_qsw_sd            =   0.0000000000000E+00
(PID.TID 0000.0001) %MON extforcing_qsw_del2          =   0.0000000000000E+00
(PID.TID 0000.0001) %MON extforcing_empmr_max         =   0.0000000000000E+00
(PID.TID 0000.0001) %MON extforcing_empmr_min         =   0.0000000000000E+00
(PID.TID 0000.0001) %MON extforcing_empmr_mean        =   0.0000000000000E+00
(PID.TID 0000.0001) %MON extforcing_empmr_sd          =   0.0000000000000E+00
(PID.TID 0000.0001) %MON extforcing_empmr_del2        =   0.0000000000000E+00
(PID.TID 0000.0001) %MON extforcing_fu_max            =   2.7819065451622E-01
(PID.TID 0000.0001) %MON extforcing_fu_min            =  -1.7091440856457E-01
(PID.TID 0000.0001) %MON extforcing_fu_mean           =   1.6164635798973E-02
(PID.TID 0000.0001) %MON extforcing_fu_sd             =   9.0554740471920E-02
(PID.TID 0000.0001) %MON extforcing_fu_del2           =   7.5402425050921E-03
(PID.TID 0000.0001) %MON extforcing_fv_max            =   2.2349597960711E-01
(PID.TID 0000.0001) %MON extforcing_fv_min            =  -1.7516300082207E-01
(PID.TID 0000.0001) %MON extforcing_fv_mean           =  -5.4546804596506E-03
(PID.TID 0000.0001) %MON extforcing_fv_sd             =   4.7328470565258E-02
(PID.TID 0000.0001) %MON extforcing_fv_del2           =   4.6749947347329E-03
(PID.TID 0000.0001) %MON advcfl_uvel_max              =   2.2955376429991E-02
(PID.TID 0000.0001) %MON advcfl_vvel_max              =   1.6427058041529E-02
(PID.TID 0000.0001) %MON advcfl_wvel_max              =   1.9607000746159E-01
(PID.TID 0000.0001) %MON advcfl_W_hf_max              =   1.3872016451169E-01
(PID.TID 0000.0001) %MON pe_b_mean                    =   1.8296476229939E-04
(PID.TID 0000.0001) %MON ke_max                       =   1.5469366816191E-02
(PID.TID 0000.0001) %MON ke_mean                      =   1.9650436991718E-04
(PID.TID 0000.0001) %MON ke_vol                       =   1.3226782436723E+18
(PID.TID 0000.0001) %MON vort_r_min                   =  -3.5851995864462E-07
(PID.TID 0000.0001) %MON vort_r_max                   =   4.4986558941563E-07
(PID.TID 0000.0001) %MON vort_a_mean                  =  -2.5205769389981E-05
(PID.TID 0000.0001) %MON vort_a_sd                    =   7.3402983002490E-05
(PID.TID 0000.0001) %MON vort_p_mean                  =  -3.1758669553113E-05
(PID.TID 0000.0001) %MON vort_p_sd                    =   1.3126440279008E-04
(PID.TID 0000.0001) %MON surfExpan_theta_mean         =   1.5911983288408E-05
(PID.TID 0000.0001) %MON surfExpan_salt_mean          =   2.5104708514789E-06
(PID.TID 0000.0001) // =======================================================
(PID.TID 0000.0001) // End MONITOR dynamic field statistics
(PID.TID 0000.0001) // =======================================================
time,SST,SSS,fu,fv,Q,E-P,i0,i1,a,b =   1.5984E+06  7.8456E-01  3.4680E+01 -3.3160E-02 -5.2634E-02  2.6282E+02  0.0000E+00     1     2  1.1667E-01  8.8333E-01
time,fu0,fu1,fu =   1.5984E+06 -3.5633E-02 -1.4435E-02 -3.3160E-02  1.166666666666667E-01  8.833333333333333E-01
 cg2d: Sum(rhs),rhsMax =  -1.24318610961183E-12  8.53412765044123E+00
(PID.TID 0000.0001)                    cg2d_init_res =    7.18354408338208E-01
(PID.TID 0000.0001)                       cg2d_iters =    25
(PID.TID 0000.0001)                         cg2d_res =    4.98838325898116E-14
(PID.TID 0000.0001) // =======================================================
(PID.TID 0000.0001) // Begin MONITOR dynamic field statistics
(PID.TID 0000.0001) // =======================================================
(PID.TID 0000.0001) %MON time_tsnumber                =                    38
(PID.TID 0000.0001) %MON time_secondsf                =   1.6416000000000E+06
(PID.TID 0000.0001) %MON dynstat_eta_max              =   9.5238148720718E-01
(PID.TID 0000.0001) %MON dynstat_eta_min              =  -1.0727153076161E+00
(PID.TID 0000.0001) %MON dynstat_eta_mean             =   5.4059387114787E-16
(PID.TID 0000.0001) %MON dynstat_eta_sd               =   3.8325681563115E-01
(PID.TID 0000.0001) %MON dynstat_eta_del2             =   2.3604783329005E-02
(PID.TID 0000.0001) %MON dynstat_uvel_max             =   1.4912307673714E-01
(PID.TID 0000.0001) %MON dynstat_uvel_min             =  -1.7223136175012E-01
(PID.TID 0000.0001) %MON dynstat_uvel_mean            =  -1.7093358266787E-03
(PID.TID 0000.0001) %MON dynstat_uvel_sd              =   1.4209284213570E-02
(PID.TID 0000.0001) %MON dynstat_uvel_del2            =   3.3975112770823E-03
(PID.TID 0000.0001) %MON dynstat_vvel_max             =   1.6437697093983E-01
(PID.TID 0000.0001) %MON dynstat_vvel_min             =  -1.3835066195349E-01
(PID.TID 0000.0001) %MON dynstat_vvel_mean            =   4.4221730055384E-03
(PID.TID 0000.0001) %MON dynstat_vvel_sd              =   1.4076608529786E-02
(PID.TID 0000.0001) %MON dynstat_vvel_del2            =   3.4348847889140E-03
(PID.TID 0000.0001) %MON dynstat_wvel_max             =   1.7925017152839E-04
(PID.TID 0000.0001) %MON dynstat_wvel_min             =  -1.6510899085354E-04
(PID.TID 0000.0001) %MON dynstat_wvel_mean            =   4.0137894776514E-22
(PID.TID 0000.0001) %MON dynstat_wvel_sd              =   2.2975859624923E-05
(PID.TID 0000.0001) %MON dynstat_wvel_del2            =   8.0198478551053E-06
(PID.TID 0000.0001) %MON dynstat_theta_max            =   2.9546496996921E+01
(PID.TID 0000.0001) %MON dynstat_theta_min            =  -2.0318220297681E+00
(PID.TID 0000.0001) %MON dynstat_theta_mean           =   3.5952777754903E+00
(PID.TID 0000.0001) %MON dynstat_theta_sd             =   4.3555927198139E+00
(PID.TID 0000.0001) %MON dynstat_theta_del2           =   1.3980665276406E-01
(PID.TID 0000.0001) %MON dynstat_salt_max             =   3.7404515749146E+01
(PID.TID 0000.0001) %MON dynstat_salt_min             =   2.9817737572446E+01
(PID.TID 0000.0001) %MON dynstat_salt_mean            =   3.4716390857869E+01
(PID.TID 0000.0001) %MON dynstat_salt_sd              =   2.9530971662134E-01
(PID.TID 0000.0001) %MON dynstat_salt_del2            =   2.6158296084589E-02
(PID.TID 0000.0001) %MON dynstat_sst_max              =   2.9546496996921E+01
(PID.TID 0000.0001) %MON dynstat_sst_min              =  -1.9524073735250E+00
(PID.TID 0000.0001) %MON dynstat_sst_mean             =   1.8535860168832E+01
(PID.TID 0000.0001) %MON dynstat_sst_sd               =   8.9714121164497E+00
(PID.TID 0000.0001) %MON dynstat_sst_del2             =   2.7424362120395E-01
(PID.TID 0000.0001) %MON dynstat_sss_max              =   3.7404515504230E+01
(PID.TID 0000.0001) %MON dynstat_sss_min              =   2.9817737572446E+01
(PID.TID 0000.0001) %MON dynstat_sss_mean             =   3.4848792314160E+01
(PID.TID 0000.0001) %MON dynstat_sss_sd               =   9.6545547499403E-01
(PID.TID 0000.0001) %MON dynstat_sss_del2             =   8.1835403173823E-02
(PID.TID 0000.0001) %MON extforcing_qnet_max          =   4.2999681345622E+02
(PID.TID 0000.0001) %MON extforcing_qnet_min          =  -1.7918122914632E+02
(PID.TID 0000.0001) %MON extforcing_qnet_mean         =  -1.6215343915132E+01
(PID.TID 0000.0001) %MON extforcing_qnet_sd           =   1.0611317285187E+02
(PID.TID 0000.0001) %MON extforcing_qnet_del2         =   9.4902334731214E+00
(PID.TID 0000.0001) %MON extforcing_qsw_max           =   0.0000000000000E+00
(PID.TID 0000.0001) %MON extforcing_qsw_min           =   0.0000000000000E+00
(PID.TID 0000.0001) %MON extforcing_qsw_mean          =   0.0000000000000E+00
(PID.TID 0000.0001) %MON extforcing_qsw_sd            =   0.0000000000000E+00
(PID.TID 0000.0001) %MON extforcing_qsw_del2          =   0.0000000000000E+00
(PID.TID 0000.0001) %MON extforcing_empmr_max         =   0.0000000000000E+00
(PID.TID 0000.0001) %MON extforcing_empmr_min         =   0.0000000000000E+00
(PID.TID 0000.0001) %MON extforcing_empmr_mean        =   0.0000000000000E+00
(PID.TID 0000.0001) %MON extforcing_empmr_sd          =   0.0000000000000E+00
(PID.TID 0000.0001) %MON extforcing_empmr_del2        =   0.0000000000000E+00
(PID.TID 0000.0001) %MON extforcing_fu_max            =   2.7809261679649E-01
(PID.TID 0000.0001) %MON extforcing_fu_min            =  -1.7174437046051E-01
(PID.TID 0000.0001) %MON extforcing_fu_mean           =   1.6191785906707E-02
(PID.TID 0000.0001) %MON extforcing_fu_sd             =   9.0485158975952E-02
(PID.TID 0000.0001) %MON extforcing_fu_del2           =   7.5189116864129E-03
(PID.TID 0000.0001) %MON extforcing_fv_max            =   2.2189175610741E-01
(PID.TID 0000.0001) %MON extforcing_fv_min            =  -1.7466735094786E-01
(PID.TID 0000.0001) %MON extforcing_fv_mean           =  -5.4873109130082E-03
(PID.TID 0000.0001) %MON extforcing_fv_sd             =   4.7186676437547E-02
(PID.TID 0000.0001) %MON extforcing_fv_del2           =   4.6476196602915E-03
(PID.TID 0000.0001) %MON advcfl_uvel_max              =   2.2140541538033E-02
(PID.TID 0000.0001) %MON advcfl_vvel_max              =   1.5967904581973E-02
(PID.TID 0000.0001) %MON advcfl_wvel_max              =   1.7568850472260E-01
(PID.TID 0000.0001) %MON advcfl_W_hf_max              =   1.4079704112301E-01
(PID.TID 0000.0001) %MON pe_b_mean                    =   1.8795806867781E-04
(PID.TID 0000.0001) %MON ke_max                       =   1.5716555966402E-02
(PID.TID 0000.0001) %MON ke_mean                      =   1.9079336569659E-04
(PID.TID 0000.0001) %MON ke_vol                       =   1.3226782436723E+18
(PID.TID 0000.0001) %MON vort_r_min                   =  -3.4230449512133E-07
(PID.TID 0000.0001) %MON vort_r_max                   =   4.4375601197311E-07
(PID.TID 0000.0001) %MON vort_a_mean                  =  -2.5205769346685E-05
(PID.TID 0000.0001) %MON vort_a_sd                    =   7.3403007161449E-05
(PID.TID 0000.0001) %MON vort_p_mean                  =  -3.1758669498560E-05
(PID.TID 0000.0001) %MON vort_p_sd                    =   1.3126442087081E-04
(PID.TID 0000.0001) %MON surfExpan_theta_mean         =   1.9554335197983E-05
(PID.TID 0000.0001) %MON surfExpan_salt_mean          =   2.9723990130824E-06
(PID.TID 0000.0001) // =======================================================
(PID.TID 0000.0001) // End MONITOR dynamic field statistics
(PID.TID 0000.0001) // =======================================================
time,SST,SSS,fu,fv,Q,E-P,i0,i1,a,b =   1.6416E+06  7.5972E-01  3.4675E+01 -3.2807E-02 -5.1974E-02  2.6240E+02  0.0000E+00     1     2  1.3333E-01  8.6667E-01
time,fu0,fu1,fu =   1.6416E+06 -3.5633E-02 -1.4435E-02 -3.2807E-02  1.333333333333333E-01  8.666666666666667E-01
 cg2d: Sum(rhs),rhsMax =  -5.11271580627692E-13  8.14100424312470E+00
(PID.TID 0000.0001)                    cg2d_init_res =    7.28763412917666E-01
(PID.TID 0000.0001)                       cg2d_iters =    25
(PID.TID 0000.0001)                         cg2d_res =    5.10395927403607E-14
(PID.TID 0000.0001) // =======================================================
(PID.TID 0000.0001) // Begin MONITOR dynamic field statistics
(PID.TID 0000.0001) // =======================================================
(PID.TID 0000.0001) %MON time_tsnumber                =                    39
(PID.TID 0000.0001) %MON time_secondsf                =   1.6848000000000E+06
(PID.TID 0000.0001) %MON dynstat_eta_max              =   9.0820386197409E-01
(PID.TID 0000.0001) %MON dynstat_eta_min              =  -1.1097185938411E+00
(PID.TID 0000.0001) %MON dynstat_eta_mean             =   4.9156571589673E-16
(PID.TID 0000.0001) %MON dynstat_eta_sd               =   3.8850751211517E-01
(PID.TID 0000.0001) %MON dynstat_eta_del2             =   2.3796017610747E-02
(PID.TID 0000.0001) %MON dynstat_uvel_max             =   1.3589780282477E-01
(PID.TID 0000.0001) %MON dynstat_uvel_min             =  -1.7493738621449E-01
(PID.TID 0000.0001) %MON dynstat_uvel_mean            =  -1.6941800001012E-03
(PID.TID 0000.0001) %MON dynstat_uvel_sd              =   1.4004167322702E-02
(PID.TID 0000.0001) %MON dynstat_uvel_del2            =   3.3561333613720E-03
(PID.TID 0000.0001) %MON dynstat_vvel_max             =   1.5758150572122E-01
(PID.TID 0000.0001) %MON dynstat_vvel_min             =  -1.3954392088996E-01
(PID.TID 0000.0001) %MON dynstat_vvel_mean            =   4.3814297514251E-03
(PID.TID 0000.0001) %MON dynstat_vvel_sd              =   1.3886388918050E-02
(PID.TID 0000.0001) %MON dynstat_vvel_del2            =   3.3907223382632E-03
(PID.TID 0000.0001) %MON dynstat_wvel_max             =   1.7330806349017E-04
(PID.TID 0000.0001) %MON dynstat_wvel_min             =  -1.6000284700308E-04
(PID.TID 0000.0001) %MON dynstat_wvel_mean            =  -1.0336811008884E-22
(PID.TID 0000.0001) %MON dynstat_wvel_sd              =   2.2331508125044E-05
(PID.TID 0000.0001) %MON dynstat_wvel_del2            =   7.8312461768074E-06
(PID.TID 0000.0001) %MON dynstat_theta_max            =   2.9563961126816E+01
(PID.TID 0000.0001) %MON dynstat_theta_min            =  -2.0322606545150E+00
(PID.TID 0000.0001) %MON dynstat_theta_mean           =   3.5950742116552E+00
(PID.TID 0000.0001) %MON dynstat_theta_sd             =   4.3556862651881E+00
(PID.TID 0000.0001) %MON dynstat_theta_del2           =   1.3976214468539E-01
(PID.TID 0000.0001) %MON dynstat_salt_max             =   3.7403852157772E+01
(PID.TID 0000.0001) %MON dynstat_salt_min             =   2.9820833624887E+01
(PID.TID 0000.0001) %MON dynstat_salt_mean            =   3.4716354300130E+01
(PID.TID 0000.0001) %MON dynstat_salt_sd              =   2.9525925981187E-01
(PID.TID 0000.0001) %MON dynstat_salt_del2            =   2.6149606999595E-02
(PID.TID 0000.0001) %MON dynstat_sst_max              =   2.9563961126816E+01
(PID.TID 0000.0001) %MON dynstat_sst_min              =  -1.9519907241203E+00
(PID.TID 0000.0001) %MON dynstat_sst_mean             =   1.8538029313992E+01
(PID.TID 0000.0001) %MON dynstat_sst_sd               =   8.9726244564240E+00
(PID.TID 0000.0001) %MON dynstat_sst_del2             =   2.7438845101140E-01
(PID.TID 0000.0001) %MON dynstat_sss_max              =   3.7403851767504E+01
(PID.TID 0000.0001) %MON dynstat_sss_min              =   2.9820833624887E+01
(PID.TID 0000.0001) %MON dynstat_sss_mean             =   3.4847692302882E+01
(PID.TID 0000.0001) %MON dynstat_sss_sd               =   9.6571275272794E-01
(PID.TID 0000.0001) %MON dynstat_sss_del2             =   8.1862468822135E-02
(PID.TID 0000.0001) %MON extforcing_qnet_max          =   4.2833727010091E+02
(PID.TID 0000.0001) %MON extforcing_qnet_min          =  -1.7906146952311E+02
(PID.TID 0000.0001) %MON extforcing_qnet_mean         =  -1.6172889331431E+01
(PID.TID 0000.0001) %MON extforcing_qnet_sd           =   1.0557973223763E+02
(PID.TID 0000.0001) %MON extforcing_qnet_del2         =   9.4654256987229E+00
(PID.TID 0000.0001) %MON extforcing_qsw_max           =   0.0000000000000E+00
(PID.TID 0000.0001) %MON extforcing_qsw_min           =   0.0000000000000E+00
(PID.TID 0000.0001) %MON extforcing_qsw_mean          =   0.0000000000000E+00
(PID.TID 0000.0001) %MON extforcing_qsw_sd            =   0.0000000000000E+00
(PID.TID 0000.0001) %MON extforcing_qsw_del2          =   0.0000000000000E+00
(PID.TID 0000.0001) %MON extforcing_empmr_max         =   0.0000000000000E+00
(PID.TID 0000.0001) %MON extforcing_empmr_min         =   0.0000000000000E+00
(PID.TID 0000.0001) %MON extforcing_empmr_mean        =   0.0000000000000E+00
(PID.TID 0000.0001) %MON extforcing_empmr_sd          =   0.0000000000000E+00
(PID.TID 0000.0001) %MON extforcing_empmr_del2        =   0.0000000000000E+00
(PID.TID 0000.0001) %MON extforcing_fu_max            =   2.7799457907677E-01
(PID.TID 0000.0001) %MON extforcing_fu_min            =  -1.7257433235645E-01
(PID.TID 0000.0001) %MON extforcing_fu_mean           =   1.6218936014442E-02
(PID.TID 0000.0001) %MON extforcing_fu_sd             =   9.0419897423294E-02
(PID.TID 0000.0001) %MON extforcing_fu_del2           =   7.4989844909920E-03
(PID.TID 0000.0001) %MON extforcing_fv_max            =   2.2028753260771E-01
(PID.TID 0000.0001) %MON extforcing_fv_min            =  -1.7417170107365E-01
(PID.TID 0000.0001) %MON extforcing_fv_mean           =  -5.5199413663658E-03
(PID.TID 0000.0001) %MON extforcing_fv_sd             =   4.7048267643353E-02
(PID.TID 0000.0001) %MON extforcing_fv_del2           =   4.6213245194603E-03
(PID.TID 0000.0001) %MON advcfl_uvel_max              =   2.1184356288855E-02
(PID.TID 0000.0001) %MON advcfl_vvel_max              =   1.5307779629064E-02
(PID.TID 0000.0001) %MON advcfl_wvel_max              =   1.8002459138797E-01
(PID.TID 0000.0001) %MON advcfl_W_hf_max              =   1.4609834691263E-01
(PID.TID 0000.0001) %MON pe_b_mean                    =   1.9314347527291E-04
(PID.TID 0000.0001) %MON ke_max                       =   1.5936282328302E-02
(PID.TID 0000.0001) %MON ke_mean                      =   1.8559177143266E-04
(PID.TID 0000.0001) %MON ke_vol                       =   1.3226782436723E+18
(PID.TID 0000.0001) %MON vort_r_min                   =  -3.5031527299398E-07
(PID.TID 0000.0001) %MON vort_r_max                   =   5.0499130453510E-07
(PID.TID 0000.0001) %MON vort_a_mean                  =  -2.5205769303327E-05
(PID.TID 0000.0001) %MON vort_a_sd                    =   7.3403022901119E-05
(PID.TID 0000.0001) %MON vort_p_mean                  =  -3.1758669443930E-05
(PID.TID 0000.0001) %MON vort_p_sd                    =   1.3126442058484E-04
(PID.TID 0000.0001) %MON surfExpan_theta_mean         =   2.2791397661755E-05
(PID.TID 0000.0001) %MON surfExpan_salt_mean          =   3.3263426345799E-06
(PID.TID 0000.0001) // =======================================================
(PID.TID 0000.0001) // End MONITOR dynamic field statistics
(PID.TID 0000.0001) // =======================================================
time,SST,SSS,fu,fv,Q,E-P,i0,i1,a,b =   1.6848E+06  7.3488E-01  3.4671E+01 -3.2453E-02 -5.1313E-02  2.6198E+02  0.0000E+00     1     2  1.5000E-01  8.5000E-01
time,fu0,fu1,fu =   1.6848E+06 -3.5633E-02 -1.4435E-02 -3.2453E-02  1.500000000000000E-01  8.500000000000000E-01
 cg2d: Sum(rhs),rhsMax =  -8.54795401128428E-13  7.67572566966599E+00
(PID.TID 0000.0001)                    cg2d_init_res =    7.55599713697970E-01
(PID.TID 0000.0001)                       cg2d_iters =    25
(PID.TID 0000.0001)                         cg2d_res =    5.21531077931313E-14
(PID.TID 0000.0001) // =======================================================
(PID.TID 0000.0001) // Begin MONITOR dynamic field statistics
(PID.TID 0000.0001) // =======================================================
(PID.TID 0000.0001) %MON time_tsnumber                =                    40
(PID.TID 0000.0001) %MON time_secondsf                =   1.7280000000000E+06
(PID.TID 0000.0001) %MON dynstat_eta_max              =   8.5601610332312E-01
(PID.TID 0000.0001) %MON dynstat_eta_min              =  -1.1435843404266E+00
(PID.TID 0000.0001) %MON dynstat_eta_mean             =   4.0842055875208E-16
(PID.TID 0000.0001) %MON dynstat_eta_sd               =   3.9371926955203E-01
(PID.TID 0000.0001) %MON dynstat_eta_del2             =   2.3980487606455E-02
(PID.TID 0000.0001) %MON dynstat_uvel_max             =   1.4362961454756E-01
(PID.TID 0000.0001) %MON dynstat_uvel_min             =  -1.7738225129206E-01
(PID.TID 0000.0001) %MON dynstat_uvel_mean            =  -1.7091976906414E-03
(PID.TID 0000.0001) %MON dynstat_uvel_sd              =   1.3858836209697E-02
(PID.TID 0000.0001) %MON dynstat_uvel_del2            =   3.3171523948801E-03
(PID.TID 0000.0001) %MON dynstat_vvel_max             =   1.5062249144620E-01
(PID.TID 0000.0001) %MON dynstat_vvel_min             =  -1.4003429136234E-01
(PID.TID 0000.0001) %MON dynstat_vvel_mean            =   4.2925079541243E-03
(PID.TID 0000.0001) %MON dynstat_vvel_sd              =   1.3692551981390E-02
(PID.TID 0000.0001) %MON dynstat_vvel_del2            =   3.3450939749115E-03
(PID.TID 0000.0001) %MON dynstat_wvel_max             =   1.6738052620843E-04
(PID.TID 0000.0001) %MON dynstat_wvel_min             =  -1.5431044389168E-04
(PID.TID 0000.0001) %MON dynstat_wvel_mean            =   3.3424687515883E-22
(PID.TID 0000.0001) %MON dynstat_wvel_sd              =   2.1776822962739E-05
(PID.TID 0000.0001) %MON dynstat_wvel_del2            =   7.6874485887288E-06
(PID.TID 0000.0001) %MON dynstat_theta_max            =   2.9572406371050E+01
(PID.TID 0000.0001) %MON dynstat_theta_min            =  -2.0300104672605E+00
(PID.TID 0000.0001) %MON dynstat_theta_mean           =   3.5948368346393E+00
(PID.TID 0000.0001) %MON dynstat_theta_sd             =   4.3556073347358E+00
(PID.TID 0000.0001) %MON dynstat_theta_del2           =   1.3974121025706E-01
(PID.TID 0000.0001) %MON dynstat_salt_max             =   3.7403329011094E+01
(PID.TID 0000.0001) %MON dynstat_salt_min             =   2.9823766574950E+01
(PID.TID 0000.0001) %MON dynstat_salt_mean            =   3.4716314522813E+01
(PID.TID 0000.0001) %MON dynstat_salt_sd              =   2.9520845478402E-01
(PID.TID 0000.0001) %MON dynstat_salt_del2            =   2.6135996856567E-02
(PID.TID 0000.0001) %MON dynstat_sst_max              =   2.9572406371050E+01
(PID.TID 0000.0001) %MON dynstat_sst_min              =  -1.9512118143282E+00
(PID.TID 0000.0001) %MON dynstat_sst_mean             =   1.8540023651987E+01
(PID.TID 0000.0001) %MON dynstat_sst_sd               =   8.9731294326922E+00
(PID.TID 0000.0001) %MON dynstat_sst_del2             =   2.7463556044752E-01
(PID.TID 0000.0001) %MON dynstat_sss_max              =   3.7403328470695E+01
(PID.TID 0000.0001) %MON dynstat_sss_min              =   2.9823766574950E+01
(PID.TID 0000.0001) %MON dynstat_sss_mean             =   3.4846576906868E+01
(PID.TID 0000.0001) %MON dynstat_sss_sd               =   9.6597311649380E-01
(PID.TID 0000.0001) %MON dynstat_sss_del2             =   8.1850987293662E-02
(PID.TID 0000.0001) %MON extforcing_qnet_max          =   4.2667772674561E+02
(PID.TID 0000.0001) %MON extforcing_qnet_min          =  -1.7894170989990E+02
(PID.TID 0000.0001) %MON extforcing_qnet_mean         =  -1.6130434747729E+01
(PID.TID 0000.0001) %MON extforcing_qnet_sd           =   1.0504724876520E+02
(PID.TID 0000.0001) %MON extforcing_qnet_del2         =   9.4408486030587E+00
(PID.TID 0000.0001) %MON extforcing_qsw_max           =   0.0000000000000E+00
(PID.TID 0000.0001) %MON extforcing_qsw_min           =   0.0000000000000E+00
(PID.TID 0000.0001) %MON extforcing_qsw_mean          =   0.0000000000000E+00
(PID.TID 0000.0001) %MON extforcing_qsw_sd            =   0.0000000000000E+00
(PID.TID 0000.0001) %MON extforcing_qsw_del2          =   0.0000000000000E+00
(PID.TID 0000.0001) %MON extforcing_empmr_max         =   0.0000000000000E+00
(PID.TID 0000.0001) %MON extforcing_empmr_min         =   0.0000000000000E+00
(PID.TID 0000.0001) %MON extforcing_empmr_mean        =   0.0000000000000E+00
(PID.TID 0000.0001) %MON extforcing_empmr_sd          =   0.0000000000000E+00
(PID.TID 0000.0001) %MON extforcing_empmr_del2        =   0.0000000000000E+00
(PID.TID 0000.0001) %MON extforcing_fu_max            =   2.7789654135704E-01
(PID.TID 0000.0001) %MON extforcing_fu_min            =  -1.7340429425240E-01
(PID.TID 0000.0001) %MON extforcing_fu_mean           =   1.6246086122176E-02
(PID.TID 0000.0001) %MON extforcing_fu_sd             =   9.0358965174153E-02
(PID.TID 0000.0001) %MON extforcing_fu_del2           =   7.4796294872858E-03
(PID.TID 0000.0001) %MON extforcing_fv_max            =   2.1868330910802E-01
(PID.TID 0000.0001) %MON extforcing_fv_min            =  -1.7367605119944E-01
(PID.TID 0000.0001) %MON extforcing_fv_mean           =  -5.5525718197234E-03
(PID.TID 0000.0001) %MON extforcing_fv_sd             =   4.6913274146055E-02
(PID.TID 0000.0001) %MON extforcing_fv_del2           =   4.5965818815817E-03
(PID.TID 0000.0001) %MON advcfl_uvel_max              =   2.0135569914487E-02
(PID.TID 0000.0001) %MON advcfl_vvel_max              =   1.4631767196832E-02
(PID.TID 0000.0001) %MON advcfl_wvel_max              =   1.8154756979977E-01
(PID.TID 0000.0001) %MON advcfl_W_hf_max              =   1.4699307429469E-01
(PID.TID 0000.0001) %MON pe_b_mean                    =   1.9836020186589E-04
(PID.TID 0000.0001) %MON ke_max                       =   1.6128811261621E-02
(PID.TID 0000.0001) %MON ke_mean                      =   1.8102906260485E-04
(PID.TID 0000.0001) %MON ke_vol                       =   1.3226782436723E+18
(PID.TID 0000.0001) %MON vort_r_min                   =  -3.7423484615172E-07
(PID.TID 0000.0001) %MON vort_r_max                   =   5.5504026856063E-07
(PID.TID 0000.0001) %MON vort_a_mean                  =  -2.5205769262078E-05
(PID.TID 0000.0001) %MON vort_a_sd                    =   7.3403031382094E-05
(PID.TID 0000.0001) %MON vort_p_mean                  =  -3.1758669391957E-05
(PID.TID 0000.0001) %MON vort_p_sd                    =   1.3126440563378E-04
(PID.TID 0000.0001) %MON surfExpan_theta_mean         =   2.5556735856793E-05
(PID.TID 0000.0001) %MON surfExpan_salt_mean          =   3.5652736484179E-06
(PID.TID 0000.0001) // =======================================================
(PID.TID 0000.0001) // End MONITOR dynamic field statistics
(PID.TID 0000.0001) // =======================================================
time,SST,SSS,fu,fv,Q,E-P,i0,i1,a,b =   1.7280E+06  7.1005E-01  3.4666E+01 -3.2100E-02 -5.0653E-02  2.6156E+02  0.0000E+00     1     2  1.6667E-01  8.3333E-01
time,fu0,fu1,fu =   1.7280E+06 -3.5633E-02 -1.4435E-02 -3.2100E-02  1.666666666666667E-01  8.333333333333334E-01
 cg2d: Sum(rhs),rhsMax =  -6.30329122230933E-13  7.14638778751150E+00
(PID.TID 0000.0001)                    cg2d_init_res =    8.01814088132115E-01
(PID.TID 0000.0001)                       cg2d_iters =    25
(PID.TID 0000.0001)                         cg2d_res =    5.30818585663773E-14
(PID.TID 0000.0001) // =======================================================
(PID.TID 0000.0001) // Begin MONITOR dynamic field statistics
(PID.TID 0000.0001) // =======================================================
(PID.TID 0000.0001) %MON time_tsnumber                =                    41
(PID.TID 0000.0001) %MON time_secondsf                =   1.7712000000000E+06
(PID.TID 0000.0001) %MON dynstat_eta_max              =   7.9671663713407E-01
(PID.TID 0000.0001) %MON dynstat_eta_min              =  -1.1815448796004E+00
(PID.TID 0000.0001) %MON dynstat_eta_mean             =   2.3416347877798E-16
(PID.TID 0000.0001) %MON dynstat_eta_sd               =   3.9876747944842E-01
(PID.TID 0000.0001) %MON dynstat_eta_del2             =   2.4178541099443E-02
(PID.TID 0000.0001) %MON dynstat_uvel_max             =   1.4664479315817E-01
(PID.TID 0000.0001) %MON dynstat_uvel_min             =  -1.7956537310664E-01
(PID.TID 0000.0001) %MON dynstat_uvel_mean            =  -1.7470686169553E-03
(PID.TID 0000.0001) %MON dynstat_uvel_sd              =   1.3772298026852E-02
(PID.TID 0000.0001) %MON dynstat_uvel_del2            =   3.2824520877947E-03
(PID.TID 0000.0001) %MON dynstat_vvel_max             =   1.4270645311808E-01
(PID.TID 0000.0001) %MON dynstat_vvel_min             =  -1.3981691750004E-01
(PID.TID 0000.0001) %MON dynstat_vvel_mean            =   4.1570927517318E-03
(PID.TID 0000.0001) %MON dynstat_vvel_sd              =   1.3505137411159E-02
(PID.TID 0000.0001) %MON dynstat_vvel_del2            =   3.3042648834366E-03
(PID.TID 0000.0001) %MON dynstat_wvel_max             =   1.6163900771275E-04
(PID.TID 0000.0001) %MON dynstat_wvel_min             =  -1.6397959208110E-04
(PID.TID 0000.0001) %MON dynstat_wvel_mean            =   5.5768977654161E-24
(PID.TID 0000.0001) %MON dynstat_wvel_sd              =   2.1342900962371E-05
(PID.TID 0000.0001) %MON dynstat_wvel_del2            =   7.6058926527556E-06
(PID.TID 0000.0001) %MON dynstat_theta_max            =   2.9571712434178E+01
(PID.TID 0000.0001) %MON dynstat_theta_min            =  -2.0252976161435E+00
(PID.TID 0000.0001) %MON dynstat_theta_mean           =   3.5945714486684E+00
(PID.TID 0000.0001) %MON dynstat_theta_sd             =   4.3553573938972E+00
(PID.TID 0000.0001) %MON dynstat_theta_del2           =   1.3978222293452E-01
(PID.TID 0000.0001) %MON dynstat_salt_max             =   3.7402947348289E+01
(PID.TID 0000.0001) %MON dynstat_salt_min             =   2.9826522052280E+01
(PID.TID 0000.0001) %MON dynstat_salt_mean            =   3.4716272871125E+01
(PID.TID 0000.0001) %MON dynstat_salt_sd              =   2.9515635151157E-01
(PID.TID 0000.0001) %MON dynstat_salt_del2            =   2.6136129906674E-02
(PID.TID 0000.0001) %MON dynstat_sst_max              =   2.9571712434178E+01
(PID.TID 0000.0001) %MON dynstat_sst_min              =  -1.9501500454635E+00
(PID.TID 0000.0001) %MON dynstat_sst_mean             =   1.8542194982746E+01
(PID.TID 0000.0001) %MON dynstat_sst_sd               =   8.9724591426778E+00
(PID.TID 0000.0001) %MON dynstat_sst_del2             =   2.7465102755022E-01
(PID.TID 0000.0001) %MON dynstat_sss_max              =   3.7402946657606E+01
(PID.TID 0000.0001) %MON dynstat_sss_min              =   2.9826522052280E+01
(PID.TID 0000.0001) %MON dynstat_sss_mean             =   3.4845529767725E+01
(PID.TID 0000.0001) %MON dynstat_sss_sd               =   9.6623930851112E-01
(PID.TID 0000.0001) %MON dynstat_sss_del2             =   8.1837637522480E-02
(PID.TID 0000.0001) %MON extforcing_qnet_max          =   4.2501818339030E+02
(PID.TID 0000.0001) %MON extforcing_qnet_min          =  -1.7882195027669E+02
(PID.TID 0000.0001) %MON extforcing_qnet_mean         =  -1.6087980164027E+01
(PID.TID 0000.0001) %MON extforcing_qnet_sd           =   1.0451573706380E+02
(PID.TID 0000.0001) %MON extforcing_qnet_del2         =   9.4163396173175E+00
(PID.TID 0000.0001) %MON extforcing_qsw_max           =   0.0000000000000E+00
(PID.TID 0000.0001) %MON extforcing_qsw_min           =   0.0000000000000E+00
(PID.TID 0000.0001) %MON extforcing_qsw_mean          =   0.0000000000000E+00
(PID.TID 0000.0001) %MON extforcing_qsw_sd            =   0.0000000000000E+00
(PID.TID 0000.0001) %MON extforcing_qsw_del2          =   0.0000000000000E+00
(PID.TID 0000.0001) %MON extforcing_empmr_max         =   0.0000000000000E+00
(PID.TID 0000.0001) %MON extforcing_empmr_min         =   0.0000000000000E+00
(PID.TID 0000.0001) %MON extforcing_empmr_mean        =   0.0000000000000E+00
(PID.TID 0000.0001) %MON extforcing_empmr_sd          =   0.0000000000000E+00
(PID.TID 0000.0001) %MON extforcing_empmr_del2        =   0.0000000000000E+00
(PID.TID 0000.0001) %MON extforcing_fu_max            =   2.7779850363731E-01
(PID.TID 0000.0001) %MON extforcing_fu_min            =  -1.7423425614834E-01
(PID.TID 0000.0001) %MON extforcing_fu_mean           =   1.6273236229911E-02
(PID.TID 0000.0001) %MON extforcing_fu_sd             =   9.0302370992227E-02
(PID.TID 0000.0001) %MON extforcing_fu_del2           =   7.4615340086554E-03
(PID.TID 0000.0001) %MON extforcing_fv_max            =   2.1707908560832E-01
(PID.TID 0000.0001) %MON extforcing_fv_min            =  -1.7318040132523E-01
(PID.TID 0000.0001) %MON extforcing_fv_mean           =  -5.5852022730810E-03
(PID.TID 0000.0001) %MON extforcing_fv_sd             =   4.6781725511238E-02
(PID.TID 0000.0001) %MON extforcing_fv_del2           =   4.5728991423764E-03
(PID.TID 0000.0001) %MON advcfl_uvel_max              =   1.9042141578572E-02
(PID.TID 0000.0001) %MON advcfl_vvel_max              =   1.3862787552250E-02
(PID.TID 0000.0001) %MON advcfl_wvel_max              =   1.7602619838106E-01
(PID.TID 0000.0001) %MON advcfl_W_hf_max              =   1.4330083074246E-01
(PID.TID 0000.0001) %MON pe_b_mean                    =   2.0347950224937E-04
(PID.TID 0000.0001) %MON ke_max                       =   1.6294784361690E-02
(PID.TID 0000.0001) %MON ke_mean                      =   1.7720013454801E-04
(PID.TID 0000.0001) %MON ke_vol                       =   1.3226782436723E+18
(PID.TID 0000.0001) %MON vort_r_min                   =  -3.9775858995598E-07
(PID.TID 0000.0001) %MON vort_r_max                   =   5.9206528649365E-07
(PID.TID 0000.0001) %MON vort_a_mean                  =  -2.5205769224833E-05
(PID.TID 0000.0001) %MON vort_a_sd                    =   7.3403033871516E-05
(PID.TID 0000.0001) %MON vort_p_mean                  =  -3.1758669345030E-05
(PID.TID 0000.0001) %MON vort_p_sd                    =   1.3126437981848E-04
(PID.TID 0000.0001) %MON surfExpan_theta_mean         =   2.7807475240600E-05
(PID.TID 0000.0001) %MON surfExpan_salt_mean          =   3.6878788968332E-06
(PID.TID 0000.0001) // =======================================================
(PID.TID 0000.0001) // End MONITOR dynamic field statistics
(PID.TID 0000.0001) // =======================================================
time,SST,SSS,fu,fv,Q,E-P,i0,i1,a,b =   1.7712E+06  6.8521E-01  3.4661E+01 -3.1747E-02 -4.9993E-02  2.6113E+02  0.0000E+00     1     2  1.8333E-01  8.1667E-01
time,fu0,fu1,fu =   1.7712E+06 -3.5633E-02 -1.4435E-02 -3.1747E-02  1.833333333333333E-01  8.166666666666667E-01
 cg2d: Sum(rhs),rhsMax =  -6.48779641121422E-13  7.16032443393138E+00
(PID.TID 0000.0001)                    cg2d_init_res =    7.97139547797312E-01
(PID.TID 0000.0001)                       cg2d_iters =    25
(PID.TID 0000.0001)                         cg2d_res =    4.92729738832059E-14
(PID.TID 0000.0001) // =======================================================
(PID.TID 0000.0001) // Begin MONITOR dynamic field statistics
(PID.TID 0000.0001) // =======================================================
(PID.TID 0000.0001) %MON time_tsnumber                =                    42
(PID.TID 0000.0001) %MON time_secondsf                =   1.8144000000000E+06
(PID.TID 0000.0001) %MON dynstat_eta_max              =   7.7347555355143E-01
(PID.TID 0000.0001) %MON dynstat_eta_min              =  -1.2133552290433E+00
(PID.TID 0000.0001) %MON dynstat_eta_mean             =   1.5347698155825E-16
(PID.TID 0000.0001) %MON dynstat_eta_sd               =   4.0356649358163E-01
(PID.TID 0000.0001) %MON dynstat_eta_del2             =   2.4415912539253E-02
(PID.TID 0000.0001) %MON dynstat_uvel_max             =   1.4502892399298E-01
(PID.TID 0000.0001) %MON dynstat_uvel_min             =  -1.8148702269769E-01
(PID.TID 0000.0001) %MON dynstat_uvel_mean            =  -1.8005475016996E-03
(PID.TID 0000.0001) %MON dynstat_uvel_sd              =   1.3740294996500E-02
(PID.TID 0000.0001) %MON dynstat_uvel_del2            =   3.2531975167533E-03
(PID.TID 0000.0001) %MON dynstat_vvel_max             =   1.3552997721066E-01
(PID.TID 0000.0001) %MON dynstat_vvel_min             =  -1.3889376032043E-01
(PID.TID 0000.0001) %MON dynstat_vvel_mean            =   3.9778939698298E-03
(PID.TID 0000.0001) %MON dynstat_vvel_sd              =   1.3333568160857E-02
(PID.TID 0000.0001) %MON dynstat_vvel_del2            =   3.2724390014680E-03
(PID.TID 0000.0001) %MON dynstat_wvel_max             =   1.5627353510027E-04
(PID.TID 0000.0001) %MON dynstat_wvel_min             =  -1.8517383486275E-04
(PID.TID 0000.0001) %MON dynstat_wvel_mean            =  -6.5178133488184E-23
(PID.TID 0000.0001) %MON dynstat_wvel_sd              =   2.1046130736998E-05
(PID.TID 0000.0001) %MON dynstat_wvel_del2            =   7.5771055103294E-06
(PID.TID 0000.0001) %MON dynstat_theta_max            =   2.9563410874199E+01
(PID.TID 0000.0001) %MON dynstat_theta_min            =  -2.0184436829263E+00
(PID.TID 0000.0001) %MON dynstat_theta_mean           =   3.5942840994542E+00
(PID.TID 0000.0001) %MON dynstat_theta_sd             =   4.3549486126364E+00
(PID.TID 0000.0001) %MON dynstat_theta_del2           =   1.3974741145048E-01
(PID.TID 0000.0001) %MON dynstat_salt_max             =   3.7402701482075E+01
(PID.TID 0000.0001) %MON dynstat_salt_min             =   2.9829092776424E+01
(PID.TID 0000.0001) %MON dynstat_salt_mean            =   3.4716230660652E+01
(PID.TID 0000.0001) %MON dynstat_salt_sd              =   2.9510687479866E-01
(PID.TID 0000.0001) %MON dynstat_salt_del2            =   2.6116242281542E-02
(PID.TID 0000.0001) %MON dynstat_sst_max              =   2.9563410874199E+01
(PID.TID 0000.0001) %MON dynstat_sst_min              =  -1.9489053730348E+00
(PID.TID 0000.0001) %MON dynstat_sst_mean             =   1.8544447205348E+01
(PID.TID 0000.0001) %MON dynstat_sst_sd               =   8.9708311443002E+00
(PID.TID 0000.0001) %MON dynstat_sst_del2             =   2.7479521192548E-01
(PID.TID 0000.0001) %MON dynstat_sss_max              =   3.7402700645544E+01
(PID.TID 0000.0001) %MON dynstat_sss_min              =   2.9829092776424E+01
(PID.TID 0000.0001) %MON dynstat_sss_mean             =   3.4844559874147E+01
(PID.TID 0000.0001) %MON dynstat_sss_sd               =   9.6649608776991E-01
(PID.TID 0000.0001) %MON dynstat_sss_del2             =   8.1799311744739E-02
(PID.TID 0000.0001) %MON extforcing_qnet_max          =   4.2335864003499E+02
(PID.TID 0000.0001) %MON extforcing_qnet_min          =  -1.7870219065348E+02
(PID.TID 0000.0001) %MON extforcing_qnet_mean         =  -1.6045525580325E+01
(PID.TID 0000.0001) %MON extforcing_qnet_sd           =   1.0398521203483E+02
(PID.TID 0000.0001) %MON extforcing_qnet_del2         =   9.3920069368459E+00
(PID.TID 0000.0001) %MON extforcing_qsw_max           =   0.0000000000000E+00
(PID.TID 0000.0001) %MON extforcing_qsw_min           =   0.0000000000000E+00
(PID.TID 0000.0001) %MON extforcing_qsw_mean          =   0.0000000000000E+00
(PID.TID 0000.0001) %MON extforcing_qsw_sd            =   0.0000000000000E+00
(PID.TID 0000.0001) %MON extforcing_qsw_del2          =   0.0000000000000E+00
(PID.TID 0000.0001) %MON extforcing_empmr_max         =   0.0000000000000E+00
(PID.TID 0000.0001) %MON extforcing_empmr_min         =   0.0000000000000E+00
(PID.TID 0000.0001) %MON extforcing_empmr_mean        =   0.0000000000000E+00
(PID.TID 0000.0001) %MON extforcing_empmr_sd          =   0.0000000000000E+00
(PID.TID 0000.0001) %MON extforcing_empmr_del2        =   0.0000000000000E+00
(PID.TID 0000.0001) %MON extforcing_fu_max            =   2.7770046591759E-01
(PID.TID 0000.0001) %MON extforcing_fu_min            =  -1.7506421804428E-01
(PID.TID 0000.0001) %MON extforcing_fu_mean           =   1.6300386337645E-02
(PID.TID 0000.0001) %MON extforcing_fu_sd             =   9.0250123038480E-02
(PID.TID 0000.0001) %MON extforcing_fu_del2           =   7.4448850720768E-03
(PID.TID 0000.0001) %MON extforcing_fv_max            =   2.1547486210863E-01
(PID.TID 0000.0001) %MON extforcing_fv_min            =  -1.7268475145102E-01
(PID.TID 0000.0001) %MON extforcing_fv_mean           =  -5.6178327264386E-03
(PID.TID 0000.0001) %MON extforcing_fv_sd             =   4.6653650879199E-02
(PID.TID 0000.0001) %MON extforcing_fv_del2           =   4.5505035892198E-03
(PID.TID 0000.0001) %MON advcfl_uvel_max              =   1.8169727462156E-02
(PID.TID 0000.0001) %MON advcfl_vvel_max              =   1.3492415021079E-02
(PID.TID 0000.0001) %MON advcfl_wvel_max              =   1.6386699280465E-01
(PID.TID 0000.0001) %MON advcfl_W_hf_max              =   1.3503007451382E-01
(PID.TID 0000.0001) %MON pe_b_mean                    =   2.0840656860184E-04
(PID.TID 0000.0001) %MON ke_max                       =   1.6435121354327E-02
(PID.TID 0000.0001) %MON ke_mean                      =   1.7416459869830E-04
(PID.TID 0000.0001) %MON ke_vol                       =   1.3226782436723E+18
(PID.TID 0000.0001) %MON vort_r_min                   =  -4.2031760506083E-07
(PID.TID 0000.0001) %MON vort_r_max                   =   6.1487164863571E-07
(PID.TID 0000.0001) %MON vort_a_mean                  =  -2.5205769193144E-05
(PID.TID 0000.0001) %MON vort_a_sd                    =   7.3403031692192E-05
(PID.TID 0000.0001) %MON vort_p_mean                  =  -3.1758669305103E-05
(PID.TID 0000.0001) %MON vort_p_sd                    =   1.3126434700480E-04
(PID.TID 0000.0001) %MON surfExpan_theta_mean         =   2.9525803528756E-05
(PID.TID 0000.0001) %MON surfExpan_salt_mean          =   3.6971670367535E-06
(PID.TID 0000.0001) // =======================================================
(PID.TID 0000.0001) // End MONITOR dynamic field statistics
(PID.TID 0000.0001) // =======================================================
time,SST,SSS,fu,fv,Q,E-P,i0,i1,a,b =   1.8144E+06  6.6037E-01  3.4656E+01 -3.1393E-02 -4.9332E-02  2.6071E+02  0.0000E+00     1     2  2.0000E-01  8.0000E-01
time,fu0,fu1,fu =   1.8144E+06 -3.5633E-02 -1.4435E-02 -3.1393E-02  2.000000000000000E-01  8.000000000000000E-01
 cg2d: Sum(rhs),rhsMax =  -1.74991965362636E-13  7.19604411743549E+00
(PID.TID 0000.0001)                    cg2d_init_res =    7.93341967223225E-01
(PID.TID 0000.0001)                       cg2d_iters =    25
(PID.TID 0000.0001)                         cg2d_res =    4.50873118052392E-14
(PID.TID 0000.0001) // =======================================================
(PID.TID 0000.0001) // Begin MONITOR dynamic field statistics
(PID.TID 0000.0001) // =======================================================
(PID.TID 0000.0001) %MON time_tsnumber                =                    43
(PID.TID 0000.0001) %MON time_secondsf                =   1.8576000000000E+06
(PID.TID 0000.0001) %MON dynstat_eta_max              =   8.0121535682191E-01
(PID.TID 0000.0001) %MON dynstat_eta_min              =  -1.2367419373350E+00
(PID.TID 0000.0001) %MON dynstat_eta_mean             =   4.0777317059918E-16
(PID.TID 0000.0001) %MON dynstat_eta_sd               =   4.0806372690602E-01
(PID.TID 0000.0001) %MON dynstat_eta_del2             =   2.4603746413026E-02
(PID.TID 0000.0001) %MON dynstat_uvel_max             =   1.3904390806944E-01
(PID.TID 0000.0001) %MON dynstat_uvel_min             =  -1.8314792894824E-01
(PID.TID 0000.0001) %MON dynstat_uvel_mean            =  -1.8627326198529E-03
(PID.TID 0000.0001) %MON dynstat_uvel_sd              =   1.3756059847372E-02
(PID.TID 0000.0001) %MON dynstat_uvel_del2            =   3.2286466043223E-03
(PID.TID 0000.0001) %MON dynstat_vvel_max             =   1.3509630626680E-01
(PID.TID 0000.0001) %MON dynstat_vvel_min             =  -1.3727409649907E-01
(PID.TID 0000.0001) %MON dynstat_vvel_mean            =   3.7585068296844E-03
(PID.TID 0000.0001) %MON dynstat_vvel_sd              =   1.3186421674782E-02
(PID.TID 0000.0001) %MON dynstat_vvel_del2            =   3.2514847245101E-03
(PID.TID 0000.0001) %MON dynstat_wvel_max             =   1.5147834532585E-04
(PID.TID 0000.0001) %MON dynstat_wvel_min             =  -2.0614038699638E-04
(PID.TID 0000.0001) %MON dynstat_wvel_mean            =   2.0017052600233E-22
(PID.TID 0000.0001) %MON dynstat_wvel_sd              =   2.0888050599519E-05
(PID.TID 0000.0001) %MON dynstat_wvel_del2            =   7.6017943529194E-06
(PID.TID 0000.0001) %MON dynstat_theta_max            =   2.9582378201184E+01
(PID.TID 0000.0001) %MON dynstat_theta_min            =  -2.0112097264730E+00
(PID.TID 0000.0001) %MON dynstat_theta_mean           =   3.5939809054335E+00
(PID.TID 0000.0001) %MON dynstat_theta_sd             =   4.3543932534382E+00
(PID.TID 0000.0001) %MON dynstat_theta_del2           =   1.3970887150722E-01
(PID.TID 0000.0001) %MON dynstat_salt_max             =   3.7402579505157E+01
(PID.TID 0000.0001) %MON dynstat_salt_min             =   2.9831477575411E+01
(PID.TID 0000.0001) %MON dynstat_salt_mean            =   3.4716189145146E+01
(PID.TID 0000.0001) %MON dynstat_salt_sd              =   2.9505915455838E-01
(PID.TID 0000.0001) %MON dynstat_salt_del2            =   2.6099437711499E-02
(PID.TID 0000.0001) %MON dynstat_sst_max              =   2.9582378201184E+01
(PID.TID 0000.0001) %MON dynstat_sst_min              =  -1.9475859076612E+00
(PID.TID 0000.0001) %MON dynstat_sst_mean             =   1.8546731282415E+01
(PID.TID 0000.0001) %MON dynstat_sst_sd               =   8.9685039303644E+00
(PID.TID 0000.0001) %MON dynstat_sst_del2             =   2.7513114110126E-01
(PID.TID 0000.0001) %MON dynstat_sss_max              =   3.7402578531522E+01
(PID.TID 0000.0001) %MON dynstat_sss_min              =   2.9831477575411E+01
(PID.TID 0000.0001) %MON dynstat_sss_mean             =   3.4843697379522E+01
(PID.TID 0000.0001) %MON dynstat_sss_sd               =   9.6675794918974E-01
(PID.TID 0000.0001) %MON dynstat_sss_del2             =   8.1823112792746E-02
(PID.TID 0000.0001) %MON extforcing_qnet_max          =   4.2169909667969E+02
(PID.TID 0000.0001) %MON extforcing_qnet_min          =  -1.7858243103027E+02
(PID.TID 0000.0001) %MON extforcing_qnet_mean         =  -1.6003070996624E+01
(PID.TID 0000.0001) %MON extforcing_qnet_sd           =   1.0345568885738E+02
(PID.TID 0000.0001) %MON extforcing_qnet_del2         =   9.3678611333195E+00
(PID.TID 0000.0001) %MON extforcing_qsw_max           =   0.0000000000000E+00
(PID.TID 0000.0001) %MON extforcing_qsw_min           =   0.0000000000000E+00
(PID.TID 0000.0001) %MON extforcing_qsw_mean          =   0.0000000000000E+00
(PID.TID 0000.0001) %MON extforcing_qsw_sd            =   0.0000000000000E+00
(PID.TID 0000.0001) %MON extforcing_qsw_del2          =   0.0000000000000E+00
(PID.TID 0000.0001) %MON extforcing_empmr_max         =   0.0000000000000E+00
(PID.TID 0000.0001) %MON extforcing_empmr_min         =   0.0000000000000E+00
(PID.TID 0000.0001) %MON extforcing_empmr_mean        =   0.0000000000000E+00
(PID.TID 0000.0001) %MON extforcing_empmr_sd          =   0.0000000000000E+00
(PID.TID 0000.0001) %MON extforcing_empmr_del2        =   0.0000000000000E+00
(PID.TID 0000.0001) %MON extforcing_fu_max            =   2.7760242819786E-01
(PID.TID 0000.0001) %MON extforcing_fu_min            =  -1.7589417994022E-01
(PID.TID 0000.0001) %MON extforcing_fu_mean           =   1.6327536445380E-02
(PID.TID 0000.0001) %MON extforcing_fu_sd             =   9.0202228865328E-02
(PID.TID 0000.0001) %MON extforcing_fu_del2           =   7.4290360425839E-03
(PID.TID 0000.0001) %MON extforcing_fv_max            =   2.1387063860893E-01
(PID.TID 0000.0001) %MON extforcing_fv_min            =  -1.7218910157681E-01
(PID.TID 0000.0001) %MON extforcing_fv_mean           =  -5.6504631797962E-03
(PID.TID 0000.0001) %MON extforcing_fv_sd             =   4.6529078937274E-02
(PID.TID 0000.0001) %MON extforcing_fv_del2           =   4.5295511519381E-03
(PID.TID 0000.0001) %MON advcfl_uvel_max              =   1.8336010502476E-02
(PID.TID 0000.0001) %MON advcfl_vvel_max              =   1.3335077668976E-02
(PID.TID 0000.0001) %MON advcfl_wvel_max              =   1.4573770698984E-01
(PID.TID 0000.0001) %MON advcfl_W_hf_max              =   1.2235948844286E-01
(PID.TID 0000.0001) %MON pe_b_mean                    =   2.1307729931991E-04
(PID.TID 0000.0001) %MON ke_max                       =   1.6550890456465E-02
(PID.TID 0000.0001) %MON ke_mean                      =   1.7195112552440E-04
(PID.TID 0000.0001) %MON ke_vol                       =   1.3226782436723E+18
(PID.TID 0000.0001) %MON vort_r_min                   =  -4.4142357483251E-07
(PID.TID 0000.0001) %MON vort_r_max                   =   6.2294674922469E-07
(PID.TID 0000.0001) %MON vort_a_mean                  =  -2.5205769168384E-05
(PID.TID 0000.0001) %MON vort_a_sd                    =   7.3403026164600E-05
(PID.TID 0000.0001) %MON vort_p_mean                  =  -3.1758669273905E-05
(PID.TID 0000.0001) %MON vort_p_sd                    =   1.3126431086416E-04
(PID.TID 0000.0001) %MON surfExpan_theta_mean         =   3.0714679813924E-05
(PID.TID 0000.0001) %MON surfExpan_salt_mean          =   3.6003531621037E-06
(PID.TID 0000.0001) // =======================================================
(PID.TID 0000.0001) // End MONITOR dynamic field statistics
(PID.TID 0000.0001) // =======================================================
time,SST,SSS,fu,fv,Q,E-P,i0,i1,a,b =   1.8576E+06  6.3553E-01  3.4651E+01 -3.1040E-02 -4.8672E-02  2.6029E+02  0.0000E+00     1     2  2.1667E-01  7.8333E-01
time,fu0,fu1,fu =   1.8576E+06 -3.5633E-02 -1.4435E-02 -3.1040E-02  2.166666666666667E-01  7.833333333333333E-01
 cg2d: Sum(rhs),rhsMax =  -6.13481487832246E-13  7.21623310024422E+00
(PID.TID 0000.0001)                    cg2d_init_res =    7.91201932989076E-01
(PID.TID 0000.0001)                       cg2d_iters =    25
(PID.TID 0000.0001)                         cg2d_res =    4.18728779938716E-14
(PID.TID 0000.0001) // =======================================================
(PID.TID 0000.0001) // Begin MONITOR dynamic field statistics
(PID.TID 0000.0001) // =======================================================
(PID.TID 0000.0001) %MON time_tsnumber                =                    44
(PID.TID 0000.0001) %MON time_secondsf                =   1.9008000000000E+06
(PID.TID 0000.0001) %MON dynstat_eta_max              =   8.4624505439627E-01
(PID.TID 0000.0001) %MON dynstat_eta_min              =  -1.2517011825200E+00
(PID.TID 0000.0001) %MON dynstat_eta_mean             =  -1.6565707669713E-16
(PID.TID 0000.0001) %MON dynstat_eta_sd               =   4.1223156051600E-01
(PID.TID 0000.0001) %MON dynstat_eta_del2             =   2.4738989269299E-02
(PID.TID 0000.0001) %MON dynstat_uvel_max             =   1.2910539462823E-01
(PID.TID 0000.0001) %MON dynstat_uvel_min             =  -1.8454888945608E-01
(PID.TID 0000.0001) %MON dynstat_uvel_mean            =  -1.9272584204454E-03
(PID.TID 0000.0001) %MON dynstat_uvel_sd              =   1.3811301472640E-02
(PID.TID 0000.0001) %MON dynstat_uvel_del2            =   3.2128670260271E-03
(PID.TID 0000.0001) %MON dynstat_vvel_max             =   1.3447523494307E-01
(PID.TID 0000.0001) %MON dynstat_vvel_min             =  -1.3497454535023E-01
(PID.TID 0000.0001) %MON dynstat_vvel_mean            =   3.5032475704320E-03
(PID.TID 0000.0001) %MON dynstat_vvel_sd              =   1.3071266188523E-02
(PID.TID 0000.0001) %MON dynstat_vvel_del2            =   3.2401321651342E-03
(PID.TID 0000.0001) %MON dynstat_wvel_max             =   1.5443513863859E-04
(PID.TID 0000.0001) %MON dynstat_wvel_min             =  -2.2627474581288E-04
(PID.TID 0000.0001) %MON dynstat_wvel_mean            =  -3.9745099972138E-22
(PID.TID 0000.0001) %MON dynstat_wvel_sd              =   2.0857330256647E-05
(PID.TID 0000.0001) %MON dynstat_wvel_del2            =   7.6672683535485E-06
(PID.TID 0000.0001) %MON dynstat_theta_max            =   2.9597458513931E+01
(PID.TID 0000.0001) %MON dynstat_theta_min            =  -2.0112267371660E+00
(PID.TID 0000.0001) %MON dynstat_theta_mean           =   3.5936678326380E+00
(PID.TID 0000.0001) %MON dynstat_theta_sd             =   4.3537094834698E+00
(PID.TID 0000.0001) %MON dynstat_theta_del2           =   1.3965392370391E-01
(PID.TID 0000.0001) %MON dynstat_salt_max             =   3.7402564096359E+01
(PID.TID 0000.0001) %MON dynstat_salt_min             =   2.9833680284663E+01
(PID.TID 0000.0001) %MON dynstat_salt_mean            =   3.4716149467044E+01
(PID.TID 0000.0001) %MON dynstat_salt_sd              =   2.9501472605528E-01
(PID.TID 0000.0001) %MON dynstat_salt_del2            =   2.6071722829537E-02
(PID.TID 0000.0001) %MON dynstat_sst_max              =   2.9597458513931E+01
(PID.TID 0000.0001) %MON dynstat_sst_min              =  -1.9462951942581E+00
(PID.TID 0000.0001) %MON dynstat_sst_mean             =   1.8548903490888E+01
(PID.TID 0000.0001) %MON dynstat_sst_sd               =   8.9653135749706E+00
(PID.TID 0000.0001) %MON dynstat_sst_del2             =   2.7530761036139E-01
(PID.TID 0000.0001) %MON dynstat_sss_max              =   3.7402562998193E+01
(PID.TID 0000.0001) %MON dynstat_sss_min              =   2.9833680284663E+01
(PID.TID 0000.0001) %MON dynstat_sss_mean             =   3.4842878364217E+01
(PID.TID 0000.0001) %MON dynstat_sss_sd               =   9.6695515145278E-01
(PID.TID 0000.0001) %MON dynstat_sss_del2             =   8.1750247970257E-02
(PID.TID 0000.0001) %MON extforcing_qnet_max          =   4.2003955332438E+02
(PID.TID 0000.0001) %MON extforcing_qnet_min          =  -1.7846267140706E+02
(PID.TID 0000.0001) %MON extforcing_qnet_mean         =  -1.5960616412922E+01
(PID.TID 0000.0001) %MON extforcing_qnet_sd           =   1.0292718299394E+02
(PID.TID 0000.0001) %MON extforcing_qnet_del2         =   9.3438824482456E+00
(PID.TID 0000.0001) %MON extforcing_qsw_max           =   0.0000000000000E+00
(PID.TID 0000.0001) %MON extforcing_qsw_min           =   0.0000000000000E+00
(PID.TID 0000.0001) %MON extforcing_qsw_mean          =   0.0000000000000E+00
(PID.TID 0000.0001) %MON extforcing_qsw_sd            =   0.0000000000000E+00
(PID.TID 0000.0001) %MON extforcing_qsw_del2          =   0.0000000000000E+00
(PID.TID 0000.0001) %MON extforcing_empmr_max         =   0.0000000000000E+00
(PID.TID 0000.0001) %MON extforcing_empmr_min         =   0.0000000000000E+00
(PID.TID 0000.0001) %MON extforcing_empmr_mean        =   0.0000000000000E+00
(PID.TID 0000.0001) %MON extforcing_empmr_sd          =   0.0000000000000E+00
(PID.TID 0000.0001) %MON extforcing_empmr_del2        =   0.0000000000000E+00
(PID.TID 0000.0001) %MON extforcing_fu_max            =   2.7750439047813E-01
(PID.TID 0000.0001) %MON extforcing_fu_min            =  -1.7672414183617E-01
(PID.TID 0000.0001) %MON extforcing_fu_mean           =   1.6354686553114E-02
(PID.TID 0000.0001) %MON extforcing_fu_sd             =   9.0158695411226E-02
(PID.TID 0000.0001) %MON extforcing_fu_del2           =   7.4145870940191E-03
(PID.TID 0000.0001) %MON extforcing_fv_max            =   2.1226641510924E-01
(PID.TID 0000.0001) %MON extforcing_fv_min            =  -1.7169345170259E-01
(PID.TID 0000.0001) %MON extforcing_fv_mean           =  -5.6830936331538E-03
(PID.TID 0000.0001) %MON extforcing_fv_sd             =   4.6408037892024E-02
(PID.TID 0000.0001) %MON extforcing_fv_del2           =   4.5098632155974E-03
(PID.TID 0000.0001) %MON advcfl_uvel_max              =   1.8476268853923E-02
(PID.TID 0000.0001) %MON advcfl_vvel_max              =   1.3111694715050E-02
(PID.TID 0000.0001) %MON advcfl_wvel_max              =   1.3188086214225E-01
(PID.TID 0000.0001) %MON advcfl_W_hf_max              =   1.0713821503249E-01
(PID.TID 0000.0001) %MON pe_b_mean                    =   2.1745213544131E-04
(PID.TID 0000.0001) %MON ke_max                       =   1.6643168506482E-02
(PID.TID 0000.0001) %MON ke_mean                      =   1.7056443544776E-04
(PID.TID 0000.0001) %MON ke_vol                       =   1.3226782436723E+18
(PID.TID 0000.0001) %MON vort_r_min                   =  -4.6068608644967E-07
(PID.TID 0000.0001) %MON vort_r_max                   =   6.1646922353619E-07
(PID.TID 0000.0001) %MON vort_a_mean                  =  -2.5205769150975E-05
(PID.TID 0000.0001) %MON vort_a_sd                    =   7.3403018569187E-05
(PID.TID 0000.0001) %MON vort_p_mean                  =  -3.1758669251970E-05
(PID.TID 0000.0001) %MON vort_p_sd                    =   1.3126427474915E-04
(PID.TID 0000.0001) %MON surfExpan_theta_mean         =   3.1397973492064E-05
(PID.TID 0000.0001) %MON surfExpan_salt_mean          =   3.4083979044435E-06
(PID.TID 0000.0001) // =======================================================
(PID.TID 0000.0001) // End MONITOR dynamic field statistics
(PID.TID 0000.0001) // =======================================================
time,SST,SSS,fu,fv,Q,E-P,i0,i1,a,b =   1.9008E+06  6.1069E-01  3.4646E+01 -3.0687E-02 -4.8012E-02  2.5987E+02  0.0000E+00     1     2  2.3333E-01  7.6667E-01
time,fu0,fu1,fu =   1.9008E+06 -3.5633E-02 -1.4435E-02 -3.0687E-02  2.333333333333333E-01  7.666666666666666E-01
 cg2d: Sum(rhs),rhsMax =  -9.12020459153950E-13  7.36407436363192E+00
(PID.TID 0000.0001)                    cg2d_init_res =    7.72843435458737E-01
(PID.TID 0000.0001)                       cg2d_iters =    25
(PID.TID 0000.0001)                         cg2d_res =    3.92505151544945E-14
(PID.TID 0000.0001) // =======================================================
(PID.TID 0000.0001) // Begin MONITOR dynamic field statistics
(PID.TID 0000.0001) // =======================================================
(PID.TID 0000.0001) %MON time_tsnumber                =                    45
(PID.TID 0000.0001) %MON time_secondsf                =   1.9440000000000E+06
(PID.TID 0000.0001) %MON dynstat_eta_max              =   8.8536202691998E-01
(PID.TID 0000.0001) %MON dynstat_eta_min              =  -1.2594553606897E+00
(PID.TID 0000.0001) %MON dynstat_eta_mean             =   2.1146597938470E-16
(PID.TID 0000.0001) %MON dynstat_eta_sd               =   4.1605939755897E-01
(PID.TID 0000.0001) %MON dynstat_eta_del2             =   2.4866839257907E-02
(PID.TID 0000.0001) %MON dynstat_uvel_max             =   1.1575460146868E-01
(PID.TID 0000.0001) %MON dynstat_uvel_min             =  -1.8569045606310E-01
(PID.TID 0000.0001) %MON dynstat_uvel_mean            =  -1.9884683949298E-03
(PID.TID 0000.0001) %MON dynstat_uvel_sd              =   1.3897239536576E-02
(PID.TID 0000.0001) %MON dynstat_uvel_del2            =   3.2066704286870E-03
(PID.TID 0000.0001) %MON dynstat_vvel_max             =   1.3364685029987E-01
(PID.TID 0000.0001) %MON dynstat_vvel_min             =  -1.3201870192964E-01
(PID.TID 0000.0001) %MON dynstat_vvel_mean            =   3.2170016413550E-03
(PID.TID 0000.0001) %MON dynstat_vvel_sd              =   1.2994429432692E-02
(PID.TID 0000.0001) %MON dynstat_vvel_del2            =   3.2395370371949E-03
(PID.TID 0000.0001) %MON dynstat_wvel_max             =   1.5606281110663E-04
(PID.TID 0000.0001) %MON dynstat_wvel_min             =  -2.4507352470908E-04
(PID.TID 0000.0001) %MON dynstat_wvel_mean            =   5.8422636275988E-22
(PID.TID 0000.0001) %MON dynstat_wvel_sd              =   2.0933922766994E-05
(PID.TID 0000.0001) %MON dynstat_wvel_del2            =   7.7560528456592E-06
(PID.TID 0000.0001) %MON dynstat_theta_max            =   2.9608663317227E+01
(PID.TID 0000.0001) %MON dynstat_theta_min            =  -2.0114531339827E+00
(PID.TID 0000.0001) %MON dynstat_theta_mean           =   3.5933504205914E+00
(PID.TID 0000.0001) %MON dynstat_theta_sd             =   4.3529175181463E+00
(PID.TID 0000.0001) %MON dynstat_theta_del2           =   1.3956625450241E-01
(PID.TID 0000.0001) %MON dynstat_salt_max             =   3.7402633560037E+01
(PID.TID 0000.0001) %MON dynstat_salt_min             =   2.9835708631242E+01
(PID.TID 0000.0001) %MON dynstat_salt_mean            =   3.4716112624294E+01
(PID.TID 0000.0001) %MON dynstat_salt_sd              =   2.9497419941553E-01
(PID.TID 0000.0001) %MON dynstat_salt_del2            =   2.6042536475313E-02
(PID.TID 0000.0001) %MON dynstat_sst_max              =   2.9608663317227E+01
(PID.TID 0000.0001) %MON dynstat_sst_min              =  -1.9451221002543E+00
(PID.TID 0000.0001) %MON dynstat_sst_mean             =   1.8551073566335E+01
(PID.TID 0000.0001) %MON dynstat_sst_sd               =   8.9614808305174E+00
(PID.TID 0000.0001) %MON dynstat_sst_del2             =   2.7540726074573E-01
(PID.TID 0000.0001) %MON dynstat_sss_max              =   3.7402632353092E+01
(PID.TID 0000.0001) %MON dynstat_sss_min              =   2.9835708631242E+01
(PID.TID 0000.0001) %MON dynstat_sss_mean             =   3.4842169779268E+01
(PID.TID 0000.0001) %MON dynstat_sss_sd               =   9.6710372084213E-01
(PID.TID 0000.0001) %MON dynstat_sss_del2             =   8.1690945956658E-02
(PID.TID 0000.0001) %MON extforcing_qnet_max          =   4.1838000996908E+02
(PID.TID 0000.0001) %MON extforcing_qnet_min          =  -1.7834291178385E+02
(PID.TID 0000.0001) %MON extforcing_qnet_mean         =  -1.5918161829221E+01
(PID.TID 0000.0001) %MON extforcing_qnet_sd           =   1.0239971019621E+02
(PID.TID 0000.0001) %MON extforcing_qnet_del2         =   9.3200538001827E+00
(PID.TID 0000.0001) %MON extforcing_qsw_max           =   0.0000000000000E+00
(PID.TID 0000.0001) %MON extforcing_qsw_min           =   0.0000000000000E+00
(PID.TID 0000.0001) %MON extforcing_qsw_mean          =   0.0000000000000E+00
(PID.TID 0000.0001) %MON extforcing_qsw_sd            =   0.0000000000000E+00
(PID.TID 0000.0001) %MON extforcing_qsw_del2          =   0.0000000000000E+00
(PID.TID 0000.0001) %MON extforcing_empmr_max         =   0.0000000000000E+00
(PID.TID 0000.0001) %MON extforcing_empmr_min         =   0.0000000000000E+00
(PID.TID 0000.0001) %MON extforcing_empmr_mean        =   0.0000000000000E+00
(PID.TID 0000.0001) %MON extforcing_empmr_sd          =   0.0000000000000E+00
(PID.TID 0000.0001) %MON extforcing_empmr_del2        =   0.0000000000000E+00
(PID.TID 0000.0001) %MON extforcing_fu_max            =   2.7740635275841E-01
(PID.TID 0000.0001) %MON extforcing_fu_min            =  -1.7755410373211E-01
(PID.TID 0000.0001) %MON extforcing_fu_mean           =   1.6381836660849E-02
(PID.TID 0000.0001) %MON extforcing_fu_sd             =   9.0119528995688E-02
(PID.TID 0000.0001) %MON extforcing_fu_del2           =   7.4010633866032E-03
(PID.TID 0000.0001) %MON extforcing_fv_max            =   2.1066219160954E-01
(PID.TID 0000.0001) %MON extforcing_fv_min            =  -1.7119780182838E-01
(PID.TID 0000.0001) %MON extforcing_fv_mean           =  -5.7157240865113E-03
(PID.TID 0000.0001) %MON extforcing_fv_sd             =   4.6290555441337E-02
(PID.TID 0000.0001) %MON extforcing_fv_del2           =   4.4909951148187E-03
(PID.TID 0000.0001) %MON advcfl_uvel_max              =   1.8590557764618E-02
(PID.TID 0000.0001) %MON advcfl_vvel_max              =   1.2982719787741E-02
(PID.TID 0000.0001) %MON advcfl_wvel_max              =   1.1321774441088E-01
(PID.TID 0000.0001) %MON advcfl_W_hf_max              =   1.1002838891926E-01
(PID.TID 0000.0001) %MON pe_b_mean                    =   2.2150925271576E-04
(PID.TID 0000.0001) %MON ke_max                       =   1.6712912996884E-02
(PID.TID 0000.0001) %MON ke_mean                      =   1.6999239552044E-04
(PID.TID 0000.0001) %MON ke_vol                       =   1.3226782436723E+18
(PID.TID 0000.0001) %MON vort_r_min                   =  -4.7782063906821E-07
(PID.TID 0000.0001) %MON vort_r_max                   =   5.9628502493624E-07
(PID.TID 0000.0001) %MON vort_a_mean                  =  -2.5205769141031E-05
(PID.TID 0000.0001) %MON vort_a_sd                    =   7.3403010096475E-05
(PID.TID 0000.0001) %MON vort_p_mean                  =  -3.1758669239441E-05
(PID.TID 0000.0001) %MON vort_p_sd                    =   1.3126424158816E-04
(PID.TID 0000.0001) %MON surfExpan_theta_mean         =   3.1617386142818E-05
(PID.TID 0000.0001) %MON surfExpan_salt_mean          =   3.1356272606292E-06
(PID.TID 0000.0001) // =======================================================
(PID.TID 0000.0001) // End MONITOR dynamic field statistics
(PID.TID 0000.0001) // =======================================================
time,SST,SSS,fu,fv,Q,E-P,i0,i1,a,b =   1.9440E+06  5.8585E-01  3.4641E+01 -3.0333E-02 -4.7351E-02  2.5945E+02  0.0000E+00     1     2  2.5000E-01  7.5000E-01
time,fu0,fu1,fu =   1.9440E+06 -3.5633E-02 -1.4435E-02 -3.0333E-02  2.500000000000000E-01  7.500000000000000E-01
 cg2d: Sum(rhs),rhsMax =  -2.73808753448179E-13  7.63411997016480E+00
(PID.TID 0000.0001)                    cg2d_init_res =    7.39407672628448E-01
(PID.TID 0000.0001)                       cg2d_iters =    25
(PID.TID 0000.0001)                         cg2d_res =    3.57737219509478E-14
(PID.TID 0000.0001) // =======================================================
(PID.TID 0000.0001) // Begin MONITOR dynamic field statistics
(PID.TID 0000.0001) // =======================================================
(PID.TID 0000.0001) %MON time_tsnumber                =                    46
(PID.TID 0000.0001) %MON time_secondsf                =   1.9872000000000E+06
(PID.TID 0000.0001) %MON dynstat_eta_max              =   9.1733064923497E-01
(PID.TID 0000.0001) %MON dynstat_eta_min              =  -1.2953682120093E+00
(PID.TID 0000.0001) %MON dynstat_eta_mean             =   5.0383071439992E-17
(PID.TID 0000.0001) %MON dynstat_eta_sd               =   4.1954761234292E-01
(PID.TID 0000.0001) %MON dynstat_eta_del2             =   2.4941910248956E-02
(PID.TID 0000.0001) %MON dynstat_uvel_max             =   1.1617180988998E-01
(PID.TID 0000.0001) %MON dynstat_uvel_min             =  -1.8657275217893E-01
(PID.TID 0000.0001) %MON dynstat_uvel_mean            =  -2.0415231361415E-03
(PID.TID 0000.0001) %MON dynstat_uvel_sd              =   1.4005521598076E-02
(PID.TID 0000.0001) %MON dynstat_uvel_del2            =   3.2060267490868E-03
(PID.TID 0000.0001) %MON dynstat_vvel_max             =   1.3258967424353E-01
(PID.TID 0000.0001) %MON dynstat_vvel_min             =  -1.2843632774649E-01
(PID.TID 0000.0001) %MON dynstat_vvel_mean            =   2.9050535452089E-03
(PID.TID 0000.0001) %MON dynstat_vvel_sd              =   1.2960653962997E-02
(PID.TID 0000.0001) %MON dynstat_vvel_del2            =   3.2471229608476E-03
(PID.TID 0000.0001) %MON dynstat_wvel_max             =   1.5589240231225E-04
(PID.TID 0000.0001) %MON dynstat_wvel_min             =  -2.6209305733017E-04
(PID.TID 0000.0001) %MON dynstat_wvel_mean            =  -3.8960657209530E-22
(PID.TID 0000.0001) %MON dynstat_wvel_sd              =   2.1093135909956E-05
(PID.TID 0000.0001) %MON dynstat_wvel_del2            =   7.8655620806331E-06
(PID.TID 0000.0001) %MON dynstat_theta_max            =   2.9616084880805E+01
(PID.TID 0000.0001) %MON dynstat_theta_min            =  -2.0118983577446E+00
(PID.TID 0000.0001) %MON dynstat_theta_mean           =   3.5930336093775E+00
(PID.TID 0000.0001) %MON dynstat_theta_sd             =   4.3520386540504E+00
(PID.TID 0000.0001) %MON dynstat_theta_del2           =   1.3944968788873E-01
(PID.TID 0000.0001) %MON dynstat_salt_max             =   3.7402763026899E+01
(PID.TID 0000.0001) %MON dynstat_salt_min             =   2.9837573193445E+01
(PID.TID 0000.0001) %MON dynstat_salt_mean            =   3.4716079425361E+01
(PID.TID 0000.0001) %MON dynstat_salt_sd              =   2.9493782872728E-01
(PID.TID 0000.0001) %MON dynstat_salt_del2            =   2.6009129682897E-02
(PID.TID 0000.0001) %MON dynstat_sst_max              =   2.9616084880805E+01
(PID.TID 0000.0001) %MON dynstat_sst_min              =  -1.9441341881241E+00
(PID.TID 0000.0001) %MON dynstat_sst_mean             =   1.8553287199379E+01
(PID.TID 0000.0001) %MON dynstat_sst_sd               =   8.9569609212527E+00
(PID.TID 0000.0001) %MON dynstat_sst_del2             =   2.7550312239789E-01
(PID.TID 0000.0001) %MON dynstat_sss_max              =   3.7402761729343E+01
(PID.TID 0000.0001) %MON dynstat_sss_min              =   2.9837573193445E+01
(PID.TID 0000.0001) %MON dynstat_sss_mean             =   3.4841583223938E+01
(PID.TID 0000.0001) %MON dynstat_sss_sd               =   9.6720034991956E-01
(PID.TID 0000.0001) %MON dynstat_sss_del2             =   8.1637699657497E-02
(PID.TID 0000.0001) %MON extforcing_qnet_max          =   4.1672046661377E+02
(PID.TID 0000.0001) %MON extforcing_qnet_min          =  -1.7822315216064E+02
(PID.TID 0000.0001) %MON extforcing_qnet_mean         =  -1.5875707245519E+01
(PID.TID 0000.0001) %MON extforcing_qnet_sd           =   1.0187328651100E+02
(PID.TID 0000.0001) %MON extforcing_qnet_del2         =   9.2966885862128E+00
(PID.TID 0000.0001) %MON extforcing_qsw_max           =   0.0000000000000E+00
(PID.TID 0000.0001) %MON extforcing_qsw_min           =   0.0000000000000E+00
(PID.TID 0000.0001) %MON extforcing_qsw_mean          =   0.0000000000000E+00
(PID.TID 0000.0001) %MON extforcing_qsw_sd            =   0.0000000000000E+00
(PID.TID 0000.0001) %MON extforcing_qsw_del2          =   0.0000000000000E+00
(PID.TID 0000.0001) %MON extforcing_empmr_max         =   0.0000000000000E+00
(PID.TID 0000.0001) %MON extforcing_empmr_min         =   0.0000000000000E+00
(PID.TID 0000.0001) %MON extforcing_empmr_mean        =   0.0000000000000E+00
(PID.TID 0000.0001) %MON extforcing_empmr_sd          =   0.0000000000000E+00
(PID.TID 0000.0001) %MON extforcing_empmr_del2        =   0.0000000000000E+00
(PID.TID 0000.0001) %MON extforcing_fu_max            =   2.7730831503868E-01
(PID.TID 0000.0001) %MON extforcing_fu_min            =  -1.7838406562805E-01
(PID.TID 0000.0001) %MON extforcing_fu_mean           =   1.6408986768583E-02
(PID.TID 0000.0001) %MON extforcing_fu_sd             =   9.0084735314726E-02
(PID.TID 0000.0001) %MON extforcing_fu_del2           =   7.3884447881072E-03
(PID.TID 0000.0001) %MON extforcing_fv_max            =   2.0905796810985E-01
(PID.TID 0000.0001) %MON extforcing_fv_min            =  -1.7070215195417E-01
(PID.TID 0000.0001) %MON extforcing_fv_mean           =  -5.7483545398689E-03
(PID.TID 0000.0001) %MON extforcing_fv_sd             =   4.6176658746502E-02
(PID.TID 0000.0001) %MON extforcing_fv_del2           =   4.4738072212818E-03
(PID.TID 0000.0001) %MON advcfl_uvel_max              =   1.8678889589821E-02
(PID.TID 0000.0001) %MON advcfl_vvel_max              =   1.2880023611400E-02
(PID.TID 0000.0001) %MON advcfl_wvel_max              =   1.1550701302001E-01
(PID.TID 0000.0001) %MON advcfl_W_hf_max              =   1.1101534098399E-01
(PID.TID 0000.0001) %MON pe_b_mean                    =   2.2523906086234E-04
(PID.TID 0000.0001) %MON ke_max                       =   1.6760865623267E-02
(PID.TID 0000.0001) %MON ke_mean                      =   1.7021124515640E-04
(PID.TID 0000.0001) %MON ke_vol                       =   1.3226782436723E+18
(PID.TID 0000.0001) %MON vort_r_min                   =  -4.9264787328092E-07
(PID.TID 0000.0001) %MON vort_r_max                   =   5.6386109839741E-07
(PID.TID 0000.0001) %MON vort_a_mean                  =  -2.5205769138231E-05
(PID.TID 0000.0001) %MON vort_a_sd                    =   7.3403001816561E-05
(PID.TID 0000.0001) %MON vort_p_mean                  =  -3.1758669235914E-05
(PID.TID 0000.0001) %MON vort_p_sd                    =   1.3126421371783E-04
(PID.TID 0000.0001) %MON surfExpan_theta_mean         =   3.1425052135622E-05
(PID.TID 0000.0001) %MON surfExpan_salt_mean          =   2.7983023253397E-06
(PID.TID 0000.0001) // =======================================================
(PID.TID 0000.0001) // End MONITOR dynamic field statistics
(PID.TID 0000.0001) // =======================================================
time,SST,SSS,fu,fv,Q,E-P,i0,i1,a,b =   1.9872E+06  5.6102E-01  3.4636E+01 -2.9980E-02 -4.6691E-02  2.5903E+02  0.0000E+00     1     2  2.6667E-01  7.3333E-01
time,fu0,fu1,fu =   1.9872E+06 -3.5633E-02 -1.4435E-02 -2.9980E-02  2.666666666666667E-01  7.333333333333334E-01
 cg2d: Sum(rhs),rhsMax =   2.36269337428041E-14  7.83757970972505E+00
(PID.TID 0000.0001)                    cg2d_init_res =    7.10564322998018E-01
(PID.TID 0000.0001)                       cg2d_iters =    25
(PID.TID 0000.0001)                         cg2d_res =    3.05264935159064E-14
(PID.TID 0000.0001) // =======================================================
(PID.TID 0000.0001) // Begin MONITOR dynamic field statistics
(PID.TID 0000.0001) // =======================================================
(PID.TID 0000.0001) %MON time_tsnumber                =                    47
(PID.TID 0000.0001) %MON time_secondsf                =   2.0304000000000E+06
(PID.TID 0000.0001) %MON dynstat_eta_max              =   9.4182103076510E-01
(PID.TID 0000.0001) %MON dynstat_eta_min              =  -1.3249794615445E+00
(PID.TID 0000.0001) %MON dynstat_eta_mean             =   1.1596384509219E-16
(PID.TID 0000.0001) %MON dynstat_eta_sd               =   4.2270387497927E-01
(PID.TID 0000.0001) %MON dynstat_eta_del2             =   2.5006743549733E-02
(PID.TID 0000.0001) %MON dynstat_uvel_max             =   1.1867600850741E-01
(PID.TID 0000.0001) %MON dynstat_uvel_min             =  -1.8719545590425E-01
(PID.TID 0000.0001) %MON dynstat_uvel_mean            =  -2.0824718869478E-03
(PID.TID 0000.0001) %MON dynstat_uvel_sd              =   1.4128934831685E-02
(PID.TID 0000.0001) %MON dynstat_uvel_del2            =   3.2100241655312E-03
(PID.TID 0000.0001) %MON dynstat_vvel_max             =   1.3128219914601E-01
(PID.TID 0000.0001) %MON dynstat_vvel_min             =  -1.2426304259633E-01
(PID.TID 0000.0001) %MON dynstat_vvel_mean            =   2.5729390729214E-03
(PID.TID 0000.0001) %MON dynstat_vvel_sd              =   1.2972640203293E-02
(PID.TID 0000.0001) %MON dynstat_vvel_del2            =   3.2621016140619E-03
(PID.TID 0000.0001) %MON dynstat_wvel_max             =   1.5408769400415E-04
(PID.TID 0000.0001) %MON dynstat_wvel_min             =  -2.7784437043077E-04
(PID.TID 0000.0001) %MON dynstat_wvel_mean            =   2.7577062382561E-22
(PID.TID 0000.0001) %MON dynstat_wvel_sd              =   2.1309294484343E-05
(PID.TID 0000.0001) %MON dynstat_wvel_del2            =   7.9816060599945E-06
(PID.TID 0000.0001) %MON dynstat_theta_max            =   2.9619888093773E+01
(PID.TID 0000.0001) %MON dynstat_theta_min            =  -2.0125544750254E+00
(PID.TID 0000.0001) %MON dynstat_theta_mean           =   3.5927216806371E+00
(PID.TID 0000.0001) %MON dynstat_theta_sd             =   4.3510970482866E+00
(PID.TID 0000.0001) %MON dynstat_theta_del2           =   1.3933809929200E-01
(PID.TID 0000.0001) %MON dynstat_salt_max             =   3.7402925740462E+01
(PID.TID 0000.0001) %MON dynstat_salt_min             =   2.9839286504397E+01
(PID.TID 0000.0001) %MON dynstat_salt_mean            =   3.4716050483141E+01
(PID.TID 0000.0001) %MON dynstat_salt_sd              =   2.9490803124139E-01
(PID.TID 0000.0001) %MON dynstat_salt_del2            =   2.5975928148537E-02
(PID.TID 0000.0001) %MON dynstat_sst_max              =   2.9619888093773E+01
(PID.TID 0000.0001) %MON dynstat_sst_min              =  -1.9433746428006E+00
(PID.TID 0000.0001) %MON dynstat_sst_mean             =   1.8555612625457E+01
(PID.TID 0000.0001) %MON dynstat_sst_sd               =   8.9518513652137E+00
(PID.TID 0000.0001) %MON dynstat_sst_del2             =   2.7544560029373E-01
(PID.TID 0000.0001) %MON dynstat_sss_max              =   3.7402924372032E+01
(PID.TID 0000.0001) %MON dynstat_sss_min              =   2.9839286504397E+01
(PID.TID 0000.0001) %MON dynstat_sss_mean             =   3.4841140626551E+01
(PID.TID 0000.0001) %MON dynstat_sss_sd               =   9.6726333796126E-01
(PID.TID 0000.0001) %MON dynstat_sss_del2             =   8.1578512430412E-02
(PID.TID 0000.0001) %MON extforcing_qnet_max          =   4.1506092325846E+02
(PID.TID 0000.0001) %MON extforcing_qnet_min          =  -1.7810339253743E+02
(PID.TID 0000.0001) %MON extforcing_qnet_mean         =  -1.5833252661817E+01
(PID.TID 0000.0001) %MON extforcing_qnet_sd           =   1.0134792828630E+02
(PID.TID 0000.0001) %MON extforcing_qnet_del2         =   9.2735900322905E+00
(PID.TID 0000.0001) %MON extforcing_qsw_max           =   0.0000000000000E+00
(PID.TID 0000.0001) %MON extforcing_qsw_min           =   0.0000000000000E+00
(PID.TID 0000.0001) %MON extforcing_qsw_mean          =   0.0000000000000E+00
(PID.TID 0000.0001) %MON extforcing_qsw_sd            =   0.0000000000000E+00
(PID.TID 0000.0001) %MON extforcing_qsw_del2          =   0.0000000000000E+00
(PID.TID 0000.0001) %MON extforcing_empmr_max         =   0.0000000000000E+00
(PID.TID 0000.0001) %MON extforcing_empmr_min         =   0.0000000000000E+00
(PID.TID 0000.0001) %MON extforcing_empmr_mean        =   0.0000000000000E+00
(PID.TID 0000.0001) %MON extforcing_empmr_sd          =   0.0000000000000E+00
(PID.TID 0000.0001) %MON extforcing_empmr_del2        =   0.0000000000000E+00
(PID.TID 0000.0001) %MON extforcing_fu_max            =   2.7721027731895E-01
(PID.TID 0000.0001) %MON extforcing_fu_min            =  -1.7921402752399E-01
(PID.TID 0000.0001) %MON extforcing_fu_mean           =   1.6436136876318E-02
(PID.TID 0000.0001) %MON extforcing_fu_sd             =   9.0054319436731E-02
(PID.TID 0000.0001) %MON extforcing_fu_del2           =   7.3773843907971E-03
(PID.TID 0000.0001) %MON extforcing_fv_max            =   2.0745374461015E-01
(PID.TID 0000.0001) %MON extforcing_fv_min            =  -1.7020650207996E-01
(PID.TID 0000.0001) %MON extforcing_fv_mean           =  -5.7809849932265E-03
(PID.TID 0000.0001) %MON extforcing_fv_sd             =   4.6066374404308E-02
(PID.TID 0000.0001) %MON extforcing_fv_del2           =   4.4584552049203E-03
(PID.TID 0000.0001) %MON advcfl_uvel_max              =   1.8741232102308E-02
(PID.TID 0000.0001) %MON advcfl_vvel_max              =   1.2753012890366E-02
(PID.TID 0000.0001) %MON advcfl_wvel_max              =   1.4824267577185E-01
(PID.TID 0000.0001) %MON advcfl_W_hf_max              =   1.1007527852044E-01
(PID.TID 0000.0001) %MON pe_b_mean                    =   2.2864076173118E-04
(PID.TID 0000.0001) %MON ke_max                       =   1.6787501363197E-02
(PID.TID 0000.0001) %MON ke_mean                      =   1.7118820133872E-04
(PID.TID 0000.0001) %MON ke_vol                       =   1.3226782436723E+18
(PID.TID 0000.0001) %MON vort_r_min                   =  -5.0508558256500E-07
(PID.TID 0000.0001) %MON vort_r_max                   =   5.2119190645512E-07
(PID.TID 0000.0001) %MON vort_a_mean                  =  -2.5205769141834E-05
(PID.TID 0000.0001) %MON vort_a_sd                    =   7.3402994654338E-05
(PID.TID 0000.0001) %MON vort_p_mean                  =  -3.1758669240453E-05
(PID.TID 0000.0001) %MON vort_p_sd                    =   1.3126419291839E-04
(PID.TID 0000.0001) %MON surfExpan_theta_mean         =   3.0880675589565E-05
(PID.TID 0000.0001) %MON surfExpan_salt_mean          =   2.4143739053853E-06
(PID.TID 0000.0001) // =======================================================
(PID.TID 0000.0001) // End MONITOR dynamic field statistics
(PID.TID 0000.0001) // =======================================================
time,SST,SSS,fu,fv,Q,E-P,i0,i1,a,b =   2.0304E+06  5.3618E-01  3.4631E+01 -2.9627E-02 -4.6031E-02  2.5861E+02  0.0000E+00     1     2  2.8333E-01  7.1667E-01
time,fu0,fu1,fu =   2.0304E+06 -3.5633E-02 -1.4435E-02 -2.9627E-02  2.833333333333333E-01  7.166666666666667E-01
 cg2d: Sum(rhs),rhsMax =  -1.62946045545453E-13  7.97661649749668E+00
(PID.TID 0000.0001)                    cg2d_init_res =    6.85848906428482E-01
(PID.TID 0000.0001)                       cg2d_iters =    24
(PID.TID 0000.0001)                         cg2d_res =    8.55270098876564E-14
(PID.TID 0000.0001) // =======================================================
(PID.TID 0000.0001) // Begin MONITOR dynamic field statistics
(PID.TID 0000.0001) // =======================================================
(PID.TID 0000.0001) %MON time_tsnumber                =                    48
(PID.TID 0000.0001) %MON time_secondsf                =   2.0736000000000E+06
(PID.TID 0000.0001) %MON dynstat_eta_max              =   9.5906863636160E-01
(PID.TID 0000.0001) %MON dynstat_eta_min              =  -1.3468714800846E+00
(PID.TID 0000.0001) %MON dynstat_eta_mean             =  -4.9082634909916E-16
(PID.TID 0000.0001) %MON dynstat_eta_sd               =   4.2554179944586E-01
(PID.TID 0000.0001) %MON dynstat_eta_del2             =   2.5038005996261E-02
(PID.TID 0000.0001) %MON dynstat_uvel_max             =   1.1992668996766E-01
(PID.TID 0000.0001) %MON dynstat_uvel_min             =  -1.8755795295255E-01
(PID.TID 0000.0001) %MON dynstat_uvel_mean            =  -2.1082736640845E-03
(PID.TID 0000.0001) %MON dynstat_uvel_sd              =   1.4261870009984E-02
(PID.TID 0000.0001) %MON dynstat_uvel_del2            =   3.2206777387509E-03
(PID.TID 0000.0001) %MON dynstat_vvel_max             =   1.3109121075757E-01
(PID.TID 0000.0001) %MON dynstat_vvel_min             =  -1.2192183969424E-01
(PID.TID 0000.0001) %MON dynstat_vvel_mean            =   2.2262977796577E-03
(PID.TID 0000.0001) %MON dynstat_vvel_sd              =   1.3030577081972E-02
(PID.TID 0000.0001) %MON dynstat_vvel_del2            =   3.2834622247995E-03
(PID.TID 0000.0001) %MON dynstat_wvel_max             =   1.5369939729446E-04
(PID.TID 0000.0001) %MON dynstat_wvel_min             =  -2.9140535199629E-04
(PID.TID 0000.0001) %MON dynstat_wvel_mean            =  -4.3148939328015E-22
(PID.TID 0000.0001) %MON dynstat_wvel_sd              =   2.1558117167373E-05
(PID.TID 0000.0001) %MON dynstat_wvel_del2            =   8.0869973535361E-06
(PID.TID 0000.0001) %MON dynstat_theta_max            =   2.9620302735639E+01
(PID.TID 0000.0001) %MON dynstat_theta_min            =  -2.0133979750933E+00
(PID.TID 0000.0001) %MON dynstat_theta_mean           =   3.5924181832729E+00
(PID.TID 0000.0001) %MON dynstat_theta_sd             =   4.3501143273968E+00
(PID.TID 0000.0001) %MON dynstat_theta_del2           =   1.3924435947506E-01
(PID.TID 0000.0001) %MON dynstat_salt_max             =   3.7403094354351E+01
(PID.TID 0000.0001) %MON dynstat_salt_min             =   2.9840862343015E+01
(PID.TID 0000.0001) %MON dynstat_salt_mean            =   3.4716026195783E+01
(PID.TID 0000.0001) %MON dynstat_salt_sd              =   2.9488486961683E-01
(PID.TID 0000.0001) %MON dynstat_salt_del2            =   2.5944239530668E-02
(PID.TID 0000.0001) %MON dynstat_sst_max              =   2.9620302735639E+01
(PID.TID 0000.0001) %MON dynstat_sst_min              =  -1.9428622950701E+00
(PID.TID 0000.0001) %MON dynstat_sst_mean             =   1.8558131010765E+01
(PID.TID 0000.0001) %MON dynstat_sst_sd               =   8.9459963150621E+00
(PID.TID 0000.0001) %MON dynstat_sst_del2             =   2.7576990682536E-01
(PID.TID 0000.0001) %MON dynstat_sss_max              =   3.7403092935484E+01
(PID.TID 0000.0001) %MON dynstat_sss_min              =   2.9840862343015E+01
(PID.TID 0000.0001) %MON dynstat_sss_mean             =   3.4840833350593E+01
(PID.TID 0000.0001) %MON dynstat_sss_sd               =   9.6723703868427E-01
(PID.TID 0000.0001) %MON dynstat_sss_del2             =   8.1539511791843E-02
(PID.TID 0000.0001) %MON extforcing_qnet_max          =   4.1340137990316E+02
(PID.TID 0000.0001) %MON extforcing_qnet_min          =  -1.7798363291423E+02
(PID.TID 0000.0001) %MON extforcing_qnet_mean         =  -1.5790798078115E+01
(PID.TID 0000.0001) %MON extforcing_qnet_sd           =   1.0082365217737E+02
(PID.TID 0000.0001) %MON extforcing_qnet_del2         =   9.2507458064913E+00
(PID.TID 0000.0001) %MON extforcing_qsw_max           =   0.0000000000000E+00
(PID.TID 0000.0001) %MON extforcing_qsw_min           =   0.0000000000000E+00
(PID.TID 0000.0001) %MON extforcing_qsw_mean          =   0.0000000000000E+00
(PID.TID 0000.0001) %MON extforcing_qsw_sd            =   0.0000000000000E+00
(PID.TID 0000.0001) %MON extforcing_qsw_del2          =   0.0000000000000E+00
(PID.TID 0000.0001) %MON extforcing_empmr_max         =   0.0000000000000E+00
(PID.TID 0000.0001) %MON extforcing_empmr_min         =   0.0000000000000E+00
(PID.TID 0000.0001) %MON extforcing_empmr_mean        =   0.0000000000000E+00
(PID.TID 0000.0001) %MON extforcing_empmr_sd          =   0.0000000000000E+00
(PID.TID 0000.0001) %MON extforcing_empmr_del2        =   0.0000000000000E+00
(PID.TID 0000.0001) %MON extforcing_fu_max            =   2.7711223959923E-01
(PID.TID 0000.0001) %MON extforcing_fu_min            =  -1.8004398941994E-01
(PID.TID 0000.0001) %MON extforcing_fu_mean           =   1.6463286984052E-02
(PID.TID 0000.0001) %MON extforcing_fu_sd             =   9.0028285798801E-02
(PID.TID 0000.0001) %MON extforcing_fu_del2           =   7.3680007362123E-03
(PID.TID 0000.0001) %MON extforcing_fv_max            =   2.0584952111046E-01
(PID.TID 0000.0001) %MON extforcing_fv_min            =  -1.6971085220575E-01
(PID.TID 0000.0001) %MON extforcing_fv_mean           =  -5.8136154465841E-03
(PID.TID 0000.0001) %MON extforcing_fv_sd             =   4.5959728419219E-02
(PID.TID 0000.0001) %MON extforcing_fv_del2           =   4.4448667962379E-03
(PID.TID 0000.0001) %MON advcfl_uvel_max              =   1.8777523802262E-02
(PID.TID 0000.0001) %MON advcfl_vvel_max              =   1.2734459899972E-02
(PID.TID 0000.0001) %MON advcfl_wvel_max              =   1.7594199765602E-01
(PID.TID 0000.0001) %MON advcfl_W_hf_max              =   1.2453913287030E-01
(PID.TID 0000.0001) %MON pe_b_mean                    =   2.3172113741212E-04
(PID.TID 0000.0001) %MON ke_max                       =   1.6793029362924E-02
(PID.TID 0000.0001) %MON ke_mean                      =   1.7288145834535E-04
(PID.TID 0000.0001) %MON ke_vol                       =   1.3226782436723E+18
(PID.TID 0000.0001) %MON vort_r_min                   =  -5.1513562181036E-07
(PID.TID 0000.0001) %MON vort_r_max                   =   4.9752979553422E-07
(PID.TID 0000.0001) %MON vort_a_mean                  =  -2.5205769150870E-05
(PID.TID 0000.0001) %MON vort_a_sd                    =   7.3402989373023E-05
(PID.TID 0000.0001) %MON vort_p_mean                  =  -3.1758669251839E-05
(PID.TID 0000.0001) %MON vort_p_sd                    =   1.3126418036820E-04
(PID.TID 0000.0001) %MON surfExpan_theta_mean         =   3.0044599844083E-05
(PID.TID 0000.0001) %MON surfExpan_salt_mean          =   2.0022235541650E-06
(PID.TID 0000.0001) // =======================================================
(PID.TID 0000.0001) // End MONITOR dynamic field statistics
(PID.TID 0000.0001) // =======================================================
time,SST,SSS,fu,fv,Q,E-P,i0,i1,a,b =   2.0736E+06  5.1134E-01  3.4627E+01 -2.9273E-02 -4.5370E-02  2.5818E+02  0.0000E+00     1     2  3.0000E-01  7.0000E-01
time,fu0,fu1,fu =   2.0736E+06 -3.5633E-02 -1.4435E-02 -2.9273E-02  3.000000000000000E-01  7.000000000000000E-01
 cg2d: Sum(rhs),rhsMax =  -1.24379673227537E-13  8.05769528537582E+00
(PID.TID 0000.0001)                    cg2d_init_res =    6.65247208700757E-01
(PID.TID 0000.0001)                       cg2d_iters =    25
(PID.TID 0000.0001)                         cg2d_res =    2.40112634463885E-14
(PID.TID 0000.0001) // =======================================================
(PID.TID 0000.0001) // Begin MONITOR dynamic field statistics
(PID.TID 0000.0001) // =======================================================
(PID.TID 0000.0001) %MON time_tsnumber                =                    49
(PID.TID 0000.0001) %MON time_secondsf                =   2.1168000000000E+06
(PID.TID 0000.0001) %MON dynstat_eta_max              =   9.6978395054099E-01
(PID.TID 0000.0001) %MON dynstat_eta_min              =  -1.3609666611411E+00
(PID.TID 0000.0001) %MON dynstat_eta_mean             =  -3.2249127878596E-17
(PID.TID 0000.0001) %MON dynstat_eta_sd               =   4.2808110256887E-01
(PID.TID 0000.0001) %MON dynstat_eta_del2             =   2.5018551617687E-02
(PID.TID 0000.0001) %MON dynstat_uvel_max             =   1.1986440924107E-01
(PID.TID 0000.0001) %MON dynstat_uvel_min             =  -1.8765963422365E-01
(PID.TID 0000.0001) %MON dynstat_uvel_mean            =  -2.1167813307133E-03
(PID.TID 0000.0001) %MON dynstat_uvel_sd              =   1.4400545331141E-02
(PID.TID 0000.0001) %MON dynstat_uvel_del2            =   3.2366952512112E-03
(PID.TID 0000.0001) %MON dynstat_vvel_max             =   1.4271184061886E-01
(PID.TID 0000.0001) %MON dynstat_vvel_min             =  -1.1917028408438E-01
(PID.TID 0000.0001) %MON dynstat_vvel_mean            =   1.8707427193461E-03
(PID.TID 0000.0001) %MON dynstat_vvel_sd              =   1.3131804631806E-02
(PID.TID 0000.0001) %MON dynstat_vvel_del2            =   3.3101544782276E-03
(PID.TID 0000.0001) %MON dynstat_wvel_max             =   1.6323239526613E-04
(PID.TID 0000.0001) %MON dynstat_wvel_min             =  -3.0193915703255E-04
(PID.TID 0000.0001) %MON dynstat_wvel_mean            =  -1.0591124141352E-22
(PID.TID 0000.0001) %MON dynstat_wvel_sd              =   2.1817928540205E-05
(PID.TID 0000.0001) %MON dynstat_wvel_del2            =   8.1742023354458E-06
(PID.TID 0000.0001) %MON dynstat_theta_max            =   2.9709819594527E+01
(PID.TID 0000.0001) %MON dynstat_theta_min            =  -2.0143931971872E+00
(PID.TID 0000.0001) %MON dynstat_theta_mean           =   3.5921259721722E+00
(PID.TID 0000.0001) %MON dynstat_theta_sd             =   4.3491125176893E+00
(PID.TID 0000.0001) %MON dynstat_theta_del2           =   1.3911367742806E-01
(PID.TID 0000.0001) %MON dynstat_salt_max             =   3.7403242171551E+01
(PID.TID 0000.0001) %MON dynstat_salt_min             =   2.9842315229056E+01
(PID.TID 0000.0001) %MON dynstat_salt_mean            =   3.4716006752337E+01
(PID.TID 0000.0001) %MON dynstat_salt_sd              =   2.9486913169660E-01
(PID.TID 0000.0001) %MON dynstat_salt_del2            =   2.5913278157711E-02
(PID.TID 0000.0001) %MON dynstat_sst_max              =   2.9709819594527E+01
(PID.TID 0000.0001) %MON dynstat_sst_min              =  -1.9425939938781E+00
(PID.TID 0000.0001) %MON dynstat_sst_mean             =   1.8560573167018E+01
(PID.TID 0000.0001) %MON dynstat_sst_sd               =   8.9401259555888E+00
(PID.TID 0000.0001) %MON dynstat_sst_del2             =   2.7564840979616E-01
(PID.TID 0000.0001) %MON dynstat_sss_max              =   3.7403240722530E+01
(PID.TID 0000.0001) %MON dynstat_sss_min              =   2.9842315229056E+01
(PID.TID 0000.0001) %MON dynstat_sss_mean             =   3.4840624365288E+01
(PID.TID 0000.0001) %MON dynstat_sss_sd               =   9.6717546476117E-01
(PID.TID 0000.0001) %MON dynstat_sss_del2             =   8.1462630908369E-02
(PID.TID 0000.0001) %MON extforcing_qnet_max          =   4.1174183654785E+02
(PID.TID 0000.0001) %MON extforcing_qnet_min          =  -1.7786387329102E+02
(PID.TID 0000.0001) %MON extforcing_qnet_mean         =  -1.5748343494414E+01
(PID.TID 0000.0001) %MON extforcing_qnet_sd           =   1.0030047515306E+02
(PID.TID 0000.0001) %MON extforcing_qnet_del2         =   9.2279944928483E+00
(PID.TID 0000.0001) %MON extforcing_qsw_max           =   0.0000000000000E+00
(PID.TID 0000.0001) %MON extforcing_qsw_min           =   0.0000000000000E+00
(PID.TID 0000.0001) %MON extforcing_qsw_mean          =   0.0000000000000E+00
(PID.TID 0000.0001) %MON extforcing_qsw_sd            =   0.0000000000000E+00
(PID.TID 0000.0001) %MON extforcing_qsw_del2          =   0.0000000000000E+00
(PID.TID 0000.0001) %MON extforcing_empmr_max         =   0.0000000000000E+00
(PID.TID 0000.0001) %MON extforcing_empmr_min         =   0.0000000000000E+00
(PID.TID 0000.0001) %MON extforcing_empmr_mean        =   0.0000000000000E+00
(PID.TID 0000.0001) %MON extforcing_empmr_sd          =   0.0000000000000E+00
(PID.TID 0000.0001) %MON extforcing_empmr_del2        =   0.0000000000000E+00
(PID.TID 0000.0001) %MON extforcing_fu_max            =   2.7701420187950E-01
(PID.TID 0000.0001) %MON extforcing_fu_min            =  -1.8087395131588E-01
(PID.TID 0000.0001) %MON extforcing_fu_mean           =   1.6490437091787E-02
(PID.TID 0000.0001) %MON extforcing_fu_sd             =   9.0006638203509E-02
(PID.TID 0000.0001) %MON extforcing_fu_del2           =   7.3605327675130E-03
(PID.TID 0000.0001) %MON extforcing_fv_max            =   2.0424529761076E-01
(PID.TID 0000.0001) %MON extforcing_fv_min            =  -1.6921520233154E-01
(PID.TID 0000.0001) %MON extforcing_fv_mean           =  -5.8462458999417E-03
(PID.TID 0000.0001) %MON extforcing_fv_sd             =   4.5856746175698E-02
(PID.TID 0000.0001) %MON extforcing_fv_del2           =   4.4325966405230E-03
(PID.TID 0000.0001) %MON advcfl_uvel_max              =   1.8787703709103E-02
(PID.TID 0000.0001) %MON advcfl_vvel_max              =   1.3863310904748E-02
(PID.TID 0000.0001) %MON advcfl_wvel_max              =   1.9773934593314E-01
(PID.TID 0000.0001) %MON advcfl_W_hf_max              =   1.3995876260505E-01
(PID.TID 0000.0001) %MON pe_b_mean                    =   2.3449485222155E-04
(PID.TID 0000.0001) %MON ke_max                       =   1.6777443624034E-02
(PID.TID 0000.0001) %MON ke_mean                      =   1.7523856195512E-04
(PID.TID 0000.0001) %MON ke_vol                       =   1.3226782436723E+18
(PID.TID 0000.0001) %MON vort_r_min                   =  -5.2286799291361E-07
(PID.TID 0000.0001) %MON vort_r_max                   =   4.9508524348351E-07
(PID.TID 0000.0001) %MON vort_a_mean                  =  -2.5205769164052E-05
(PID.TID 0000.0001) %MON vort_a_sd                    =   7.3402986569292E-05
(PID.TID 0000.0001) %MON vort_p_mean                  =  -3.1758669268448E-05
(PID.TID 0000.0001) %MON vort_p_sd                    =   1.3126417663939E-04
(PID.TID 0000.0001) %MON surfExpan_theta_mean         =   2.8981480836717E-05
(PID.TID 0000.0001) %MON surfExpan_salt_mean          =   1.5807776603555E-06
(PID.TID 0000.0001) // =======================================================
(PID.TID 0000.0001) // End MONITOR dynamic field statistics
(PID.TID 0000.0001) // =======================================================
time,SST,SSS,fu,fv,Q,E-P,i0,i1,a,b =   2.1168E+06  4.8650E-01  3.4622E+01 -2.8920E-02 -4.4710E-02  2.5776E+02  0.0000E+00     1     2  3.1667E-01  6.8333E-01
time,fu0,fu1,fu =   2.1168E+06 -3.5633E-02 -1.4435E-02 -2.8920E-02  3.166666666666667E-01  6.833333333333333E-01
 cg2d: Sum(rhs),rhsMax =   2.15813478199323E-13  8.09041694797477E+00
(PID.TID 0000.0001)                    cg2d_init_res =    6.48878139948005E-01
(PID.TID 0000.0001)                       cg2d_iters =    25
(PID.TID 0000.0001)                         cg2d_res =    2.43095689473620E-14
(PID.TID 0000.0001) // =======================================================
(PID.TID 0000.0001) // Begin MONITOR dynamic field statistics
(PID.TID 0000.0001) // =======================================================
(PID.TID 0000.0001) %MON time_tsnumber                =                    50
(PID.TID 0000.0001) %MON time_secondsf                =   2.1600000000000E+06
(PID.TID 0000.0001) %MON dynstat_eta_max              =   9.7502319593905E-01
(PID.TID 0000.0001) %MON dynstat_eta_min              =  -1.3675288431045E+00
(PID.TID 0000.0001) %MON dynstat_eta_mean             =   3.8560277959269E-17
(PID.TID 0000.0001) %MON dynstat_eta_sd               =   4.3034825761296E-01
(PID.TID 0000.0001) %MON dynstat_eta_del2             =   2.4959045967191E-02
(PID.TID 0000.0001) %MON dynstat_uvel_max             =   1.1846338522025E-01
(PID.TID 0000.0001) %MON dynstat_uvel_min             =  -1.8750028907175E-01
(PID.TID 0000.0001) %MON dynstat_uvel_mean            =  -2.1066901485901E-03
(PID.TID 0000.0001) %MON dynstat_uvel_sd              =   1.4543016373254E-02
(PID.TID 0000.0001) %MON dynstat_uvel_del2            =   3.2542591160201E-03
(PID.TID 0000.0001) %MON dynstat_vvel_max             =   1.4946266369403E-01
(PID.TID 0000.0001) %MON dynstat_vvel_min             =  -1.1593658799620E-01
(PID.TID 0000.0001) %MON dynstat_vvel_mean            =   1.5117417708422E-03
(PID.TID 0000.0001) %MON dynstat_vvel_sd              =   1.3270743264571E-02
(PID.TID 0000.0001) %MON dynstat_vvel_del2            =   3.3369082733239E-03
(PID.TID 0000.0001) %MON dynstat_wvel_max             =   1.7286110963801E-04
(PID.TID 0000.0001) %MON dynstat_wvel_min             =  -3.0933530914366E-04
(PID.TID 0000.0001) %MON dynstat_wvel_mean            =   1.2110695282369E-22
(PID.TID 0000.0001) %MON dynstat_wvel_sd              =   2.2070006300858E-05
(PID.TID 0000.0001) %MON dynstat_wvel_del2            =   8.2367550071697E-06
(PID.TID 0000.0001) %MON dynstat_theta_max            =   2.9815641760873E+01
(PID.TID 0000.0001) %MON dynstat_theta_min            =  -2.0154972043208E+00
(PID.TID 0000.0001) %MON dynstat_theta_mean           =   3.5918471964036E+00
(PID.TID 0000.0001) %MON dynstat_theta_sd             =   4.3481115744070E+00
(PID.TID 0000.0001) %MON dynstat_theta_del2           =   1.3896125325963E-01
(PID.TID 0000.0001) %MON dynstat_salt_max             =   3.7403344267916E+01
(PID.TID 0000.0001) %MON dynstat_salt_min             =   2.9843660113580E+01
(PID.TID 0000.0001) %MON dynstat_salt_mean            =   3.4715992126827E+01
(PID.TID 0000.0001) %MON dynstat_salt_sd              =   2.9486144646063E-01
(PID.TID 0000.0001) %MON dynstat_salt_del2            =   2.5875953940040E-02
(PID.TID 0000.0001) %MON dynstat_sst_max              =   2.9815641760873E+01
(PID.TID 0000.0001) %MON dynstat_sst_min              =  -1.9425499980160E+00
(PID.TID 0000.0001) %MON dynstat_sst_mean             =   1.8563192434222E+01
(PID.TID 0000.0001) %MON dynstat_sst_sd               =   8.9338988032801E+00
(PID.TID 0000.0001) %MON dynstat_sst_del2             =   2.7532591509229E-01
(PID.TID 0000.0001) %MON dynstat_sss_max              =   3.7403342808083E+01
(PID.TID 0000.0001) %MON dynstat_sss_min              =   2.9843660113580E+01
(PID.TID 0000.0001) %MON dynstat_sss_mean             =   3.4840537859678E+01
(PID.TID 0000.0001) %MON dynstat_sss_sd               =   9.6705259351488E-01
(PID.TID 0000.0001) %MON dynstat_sss_del2             =   8.1359238057905E-02
(PID.TID 0000.0001) %MON extforcing_qnet_max          =   4.1008229319255E+02
(PID.TID 0000.0001) %MON extforcing_qnet_min          =  -1.7774411366781E+02
(PID.TID 0000.0001) %MON extforcing_qnet_mean         =  -1.5705888910712E+01
(PID.TID 0000.0001) %MON extforcing_qnet_sd           =   9.9778414502146E+01
(PID.TID 0000.0001) %MON extforcing_qnet_del2         =   9.2053397860092E+00
(PID.TID 0000.0001) %MON extforcing_qsw_max           =   0.0000000000000E+00
(PID.TID 0000.0001) %MON extforcing_qsw_min           =   0.0000000000000E+00
(PID.TID 0000.0001) %MON extforcing_qsw_mean          =   0.0000000000000E+00
(PID.TID 0000.0001) %MON extforcing_qsw_sd            =   0.0000000000000E+00
(PID.TID 0000.0001) %MON extforcing_qsw_del2          =   0.0000000000000E+00
(PID.TID 0000.0001) %MON extforcing_empmr_max         =   0.0000000000000E+00
(PID.TID 0000.0001) %MON extforcing_empmr_min         =   0.0000000000000E+00
(PID.TID 0000.0001) %MON extforcing_empmr_mean        =   0.0000000000000E+00
(PID.TID 0000.0001) %MON extforcing_empmr_sd          =   0.0000000000000E+00
(PID.TID 0000.0001) %MON extforcing_empmr_del2        =   0.0000000000000E+00
(PID.TID 0000.0001) %MON extforcing_fu_max            =   2.7691616415977E-01
(PID.TID 0000.0001) %MON extforcing_fu_min            =  -1.8170391321182E-01
(PID.TID 0000.0001) %MON extforcing_fu_mean           =   1.6517587199521E-02
(PID.TID 0000.0001) %MON extforcing_fu_sd             =   8.9989379816139E-02
(PID.TID 0000.0001) %MON extforcing_fu_del2           =   7.3542096614625E-03
(PID.TID 0000.0001) %MON extforcing_fv_max            =   2.0264107411106E-01
(PID.TID 0000.0001) %MON extforcing_fv_min            =  -1.6871955245733E-01
(PID.TID 0000.0001) %MON extforcing_fv_mean           =  -5.8788763532993E-03
(PID.TID 0000.0001) %MON extforcing_fv_sd             =   4.5757452410726E-02
(PID.TID 0000.0001) %MON extforcing_fv_del2           =   4.4213317449729E-03
(PID.TID 0000.0001) %MON advcfl_uvel_max              =   1.8771750733848E-02
(PID.TID 0000.0001) %MON advcfl_vvel_max              =   1.4519099231409E-02
(PID.TID 0000.0001) %MON advcfl_wvel_max              =   2.1301172313390E-01
(PID.TID 0000.0001) %MON advcfl_W_hf_max              =   1.5075323285449E-01
(PID.TID 0000.0001) %MON pe_b_mean                    =   2.3698524004644E-04
(PID.TID 0000.0001) %MON ke_max                       =   1.6740613926968E-02
(PID.TID 0000.0001) %MON ke_mean                      =   1.7819433842749E-04
(PID.TID 0000.0001) %MON ke_vol                       =   1.3226782436723E+18
(PID.TID 0000.0001) %MON vort_r_min                   =  -5.2840428276306E-07
(PID.TID 0000.0001) %MON vort_r_max                   =   4.9475452647260E-07
(PID.TID 0000.0001) %MON vort_a_mean                  =  -2.5205769179982E-05
(PID.TID 0000.0001) %MON vort_a_sd                    =   7.3402986673380E-05
(PID.TID 0000.0001) %MON vort_p_mean                  =  -3.1758669288519E-05
(PID.TID 0000.0001) %MON vort_p_sd                    =   1.3126418178437E-04
(PID.TID 0000.0001) %MON surfExpan_theta_mean         =   2.7746802265289E-05
(PID.TID 0000.0001) %MON surfExpan_salt_mean          =   1.1674176802363E-06
(PID.TID 0000.0001) // =======================================================
(PID.TID 0000.0001) // End MONITOR dynamic field statistics
(PID.TID 0000.0001) // =======================================================
time,SST,SSS,fu,fv,Q,E-P,i0,i1,a,b =   2.1600E+06  4.6166E-01  3.4617E+01 -2.8567E-02 -4.4050E-02  2.5734E+02  0.0000E+00     1     2  3.3333E-01  6.6667E-01
time,fu0,fu1,fu =   2.1600E+06 -3.5633E-02 -1.4435E-02 -2.8567E-02  3.333333333333333E-01  6.666666666666667E-01
 cg2d: Sum(rhs),rhsMax =  -1.54744272951035E-13  8.08616437912501E+00
(PID.TID 0000.0001)                    cg2d_init_res =    6.36696514933284E-01
(PID.TID 0000.0001)                       cg2d_iters =    25
(PID.TID 0000.0001)                         cg2d_res =    2.53383524600587E-14
(PID.TID 0000.0001) // =======================================================
(PID.TID 0000.0001) // Begin MONITOR dynamic field statistics
(PID.TID 0000.0001) // =======================================================
(PID.TID 0000.0001) %MON time_tsnumber                =                    51
(PID.TID 0000.0001) %MON time_secondsf                =   2.2032000000000E+06
(PID.TID 0000.0001) %MON dynstat_eta_max              =   9.7603919975896E-01
(PID.TID 0000.0001) %MON dynstat_eta_min              =  -1.3671389613732E+00
(PID.TID 0000.0001) %MON dynstat_eta_mean             =  -2.9462882473025E-16
(PID.TID 0000.0001) %MON dynstat_eta_sd               =   4.3237669876439E-01
(PID.TID 0000.0001) %MON dynstat_eta_del2             =   2.4890819911997E-02
(PID.TID 0000.0001) %MON dynstat_uvel_max             =   1.1573281027165E-01
(PID.TID 0000.0001) %MON dynstat_uvel_min             =  -1.8708053137168E-01
(PID.TID 0000.0001) %MON dynstat_uvel_mean            =  -2.0774586467884E-03
(PID.TID 0000.0001) %MON dynstat_uvel_sd              =   1.4689006410531E-02
(PID.TID 0000.0001) %MON dynstat_uvel_del2            =   3.2716628505392E-03
(PID.TID 0000.0001) %MON dynstat_vvel_max             =   1.5121496232008E-01
(PID.TID 0000.0001) %MON dynstat_vvel_min             =  -1.1702815993843E-01
(PID.TID 0000.0001) %MON dynstat_vvel_mean            =   1.1545147328347E-03
(PID.TID 0000.0001) %MON dynstat_vvel_sd              =   1.3439171381534E-02
(PID.TID 0000.0001) %MON dynstat_vvel_del2            =   3.3601372881274E-03
(PID.TID 0000.0001) %MON dynstat_wvel_max             =   1.8235946101897E-04
(PID.TID 0000.0001) %MON dynstat_wvel_min             =  -3.1357333608157E-04
(PID.TID 0000.0001) %MON dynstat_wvel_mean            =  -3.4430614940083E-22
(PID.TID 0000.0001) %MON dynstat_wvel_sd              =   2.2298543643955E-05
(PID.TID 0000.0001) %MON dynstat_wvel_del2            =   8.2633382722181E-06
(PID.TID 0000.0001) %MON dynstat_theta_max            =   2.9913140819028E+01
(PID.TID 0000.0001) %MON dynstat_theta_min            =  -2.0166647419888E+00
(PID.TID 0000.0001) %MON dynstat_theta_mean           =   3.5915834012765E+00
(PID.TID 0000.0001) %MON dynstat_theta_sd             =   4.3471300368068E+00
(PID.TID 0000.0001) %MON dynstat_theta_del2           =   1.3881047471513E-01
(PID.TID 0000.0001) %MON dynstat_salt_max             =   3.7403378458714E+01
(PID.TID 0000.0001) %MON dynstat_salt_min             =   2.9844912234376E+01
(PID.TID 0000.0001) %MON dynstat_salt_mean            =   3.4715982105626E+01
(PID.TID 0000.0001) %MON dynstat_salt_sd              =   2.9486218479634E-01
(PID.TID 0000.0001) %MON dynstat_salt_del2            =   2.5845906280410E-02
(PID.TID 0000.0001) %MON dynstat_sst_max              =   2.9913140819028E+01
(PID.TID 0000.0001) %MON dynstat_sst_min              =  -1.9426925028066E+00
(PID.TID 0000.0001) %MON dynstat_sst_mean             =   1.8565946108375E+01
(PID.TID 0000.0001) %MON dynstat_sst_sd               =   8.9280219409321E+00
(PID.TID 0000.0001) %MON dynstat_sst_del2             =   2.7500654060798E-01
(PID.TID 0000.0001) %MON dynstat_sss_max              =   3.7403377005765E+01
(PID.TID 0000.0001) %MON dynstat_sss_min              =   2.9844912234376E+01
(PID.TID 0000.0001) %MON dynstat_sss_mean             =   3.4840591992910E+01
(PID.TID 0000.0001) %MON dynstat_sss_sd               =   9.6694210522618E-01
(PID.TID 0000.0001) %MON dynstat_sss_del2             =   8.1306719614797E-02
(PID.TID 0000.0001) %MON extforcing_qnet_max          =   4.0842274983724E+02
(PID.TID 0000.0001) %MON extforcing_qnet_min          =  -1.7762435404460E+02
(PID.TID 0000.0001) %MON extforcing_qnet_mean         =  -1.5663434327010E+01
(PID.TID 0000.0001) %MON extforcing_qnet_sd           =   9.9257487839865E+01
(PID.TID 0000.0001) %MON extforcing_qnet_del2         =   9.1830879864781E+00
(PID.TID 0000.0001) %MON extforcing_qsw_max           =   0.0000000000000E+00
(PID.TID 0000.0001) %MON extforcing_qsw_min           =   0.0000000000000E+00
(PID.TID 0000.0001) %MON extforcing_qsw_mean          =   0.0000000000000E+00
(PID.TID 0000.0001) %MON extforcing_qsw_sd            =   0.0000000000000E+00
(PID.TID 0000.0001) %MON extforcing_qsw_del2          =   0.0000000000000E+00
(PID.TID 0000.0001) %MON extforcing_empmr_max         =   0.0000000000000E+00
(PID.TID 0000.0001) %MON extforcing_empmr_min         =   0.0000000000000E+00
(PID.TID 0000.0001) %MON extforcing_empmr_mean        =   0.0000000000000E+00
(PID.TID 0000.0001) %MON extforcing_empmr_sd          =   0.0000000000000E+00
(PID.TID 0000.0001) %MON extforcing_empmr_del2        =   0.0000000000000E+00
(PID.TID 0000.0001) %MON extforcing_fu_max            =   2.7689236402512E-01
(PID.TID 0000.0001) %MON extforcing_fu_min            =  -1.8253387510777E-01
(PID.TID 0000.0001) %MON extforcing_fu_mean           =   1.6544737307256E-02
(PID.TID 0000.0001) %MON extforcing_fu_sd             =   8.9976513162372E-02
(PID.TID 0000.0001) %MON extforcing_fu_del2           =   7.3488586478963E-03
(PID.TID 0000.0001) %MON extforcing_fv_max            =   2.0103685061137E-01
(PID.TID 0000.0001) %MON extforcing_fv_min            =  -1.6822390258312E-01
(PID.TID 0000.0001) %MON extforcing_fv_mean           =  -5.9115068066569E-03
(PID.TID 0000.0001) %MON extforcing_fv_sd             =   4.5661871186592E-02
(PID.TID 0000.0001) %MON extforcing_fv_del2           =   4.4108750136225E-03
(PID.TID 0000.0001) %MON advcfl_uvel_max              =   1.8729726335094E-02
(PID.TID 0000.0001) %MON advcfl_vvel_max              =   1.4689320991184E-02
(PID.TID 0000.0001) %MON advcfl_wvel_max              =   2.2139585804415E-01
(PID.TID 0000.0001) %MON advcfl_W_hf_max              =   1.5666625618636E-01
(PID.TID 0000.0001) %MON pe_b_mean                    =   2.3922455909287E-04
(PID.TID 0000.0001) %MON ke_max                       =   1.6682401785968E-02
(PID.TID 0000.0001) %MON ke_mean                      =   1.8166966302828E-04
(PID.TID 0000.0001) %MON ke_vol                       =   1.3226782436723E+18
(PID.TID 0000.0001) %MON vort_r_min                   =  -5.3190228526064E-07
(PID.TID 0000.0001) %MON vort_r_max                   =   4.9751653143993E-07
(PID.TID 0000.0001) %MON vort_a_mean                  =  -2.5205769197258E-05
(PID.TID 0000.0001) %MON vort_a_sd                    =   7.3402989956931E-05
(PID.TID 0000.0001) %MON vort_p_mean                  =  -3.1758669310285E-05
(PID.TID 0000.0001) %MON vort_p_sd                    =   1.3126419540121E-04
(PID.TID 0000.0001) %MON surfExpan_theta_mean         =   2.6389411659646E-05
(PID.TID 0000.0001) %MON surfExpan_salt_mean          =   7.7769814213676E-07
(PID.TID 0000.0001) // =======================================================
(PID.TID 0000.0001) // End MONITOR dynamic field statistics
(PID.TID 0000.0001) // =======================================================
time,SST,SSS,fu,fv,Q,E-P,i0,i1,a,b =   2.2032E+06  4.3683E-01  3.4612E+01 -2.8214E-02 -4.3389E-02  2.5692E+02  0.0000E+00     1     2  3.5000E-01  6.5000E-01
time,fu0,fu1,fu =   2.2032E+06 -3.5633E-02 -1.4435E-02 -2.8214E-02  3.500000000000000E-01  6.500000000000000E-01
 cg2d: Sum(rhs),rhsMax =   9.77155856229928E-13  8.05674108674484E+00
(PID.TID 0000.0001)                    cg2d_init_res =    6.28246457730713E-01
(PID.TID 0000.0001)                       cg2d_iters =    25
(PID.TID 0000.0001)                         cg2d_res =    2.61546107356310E-14
(PID.TID 0000.0001) // =======================================================
(PID.TID 0000.0001) // Begin MONITOR dynamic field statistics
(PID.TID 0000.0001) // =======================================================
(PID.TID 0000.0001) %MON time_tsnumber                =                    52
(PID.TID 0000.0001) %MON time_secondsf                =   2.2464000000000E+06
(PID.TID 0000.0001) %MON dynstat_eta_max              =   9.7413189537457E-01
(PID.TID 0000.0001) %MON dynstat_eta_min              =  -1.3606550366396E+00
(PID.TID 0000.0001) %MON dynstat_eta_mean             =   3.5270272592102E-17
(PID.TID 0000.0001) %MON dynstat_eta_sd               =   4.3420580777241E-01
(PID.TID 0000.0001) %MON dynstat_eta_del2             =   2.4817737666632E-02
(PID.TID 0000.0001) %MON dynstat_uvel_max             =   1.1171693455623E-01
(PID.TID 0000.0001) %MON dynstat_uvel_min             =  -1.8640219370010E-01
(PID.TID 0000.0001) %MON dynstat_uvel_mean            =  -2.0292153901662E-03
(PID.TID 0000.0001) %MON dynstat_uvel_sd              =   1.4839584637079E-02
(PID.TID 0000.0001) %MON dynstat_uvel_del2            =   3.2896284880642E-03
(PID.TID 0000.0001) %MON dynstat_vvel_max             =   1.4877846800699E-01
(PID.TID 0000.0001) %MON dynstat_vvel_min             =  -1.1908165865324E-01
(PID.TID 0000.0001) %MON dynstat_vvel_mean            =   8.0395302032628E-04
(PID.TID 0000.0001) %MON dynstat_vvel_sd              =   1.3626852287477E-02
(PID.TID 0000.0001) %MON dynstat_vvel_del2            =   3.3784451999789E-03
(PID.TID 0000.0001) %MON dynstat_wvel_max             =   1.9150451863698E-04
(PID.TID 0000.0001) %MON dynstat_wvel_min             =  -3.1471123717897E-04
(PID.TID 0000.0001) %MON dynstat_wvel_mean            =  -2.0197107444867E-22
(PID.TID 0000.0001) %MON dynstat_wvel_sd              =   2.2490572016580E-05
(PID.TID 0000.0001) %MON dynstat_wvel_del2            =   8.2551200719854E-06
(PID.TID 0000.0001) %MON dynstat_theta_max            =   3.0000642105034E+01
(PID.TID 0000.0001) %MON dynstat_theta_min            =  -2.0178525936977E+00
(PID.TID 0000.0001) %MON dynstat_theta_mean           =   3.5913356361406E+00
(PID.TID 0000.0001) %MON dynstat_theta_sd             =   4.3461839952003E+00
(PID.TID 0000.0001) %MON dynstat_theta_del2           =   1.3866815203918E-01
(PID.TID 0000.0001) %MON dynstat_salt_max             =   3.7403326084206E+01
(PID.TID 0000.0001) %MON dynstat_salt_min             =   2.9846087089642E+01
(PID.TID 0000.0001) %MON dynstat_salt_mean            =   3.4715976311635E+01
(PID.TID 0000.0001) %MON dynstat_salt_sd              =   2.9487178030353E-01
(PID.TID 0000.0001) %MON dynstat_salt_del2            =   2.5810294806422E-02
(PID.TID 0000.0001) %MON dynstat_sst_max              =   3.0000642105034E+01
(PID.TID 0000.0001) %MON dynstat_sst_min              =  -1.9429807408629E+00
(PID.TID 0000.0001) %MON dynstat_sst_mean             =   1.8568603512460E+01
(PID.TID 0000.0001) %MON dynstat_sst_sd               =   8.9221540791420E+00
(PID.TID 0000.0001) %MON dynstat_sst_del2             =   2.7478249621921E-01
(PID.TID 0000.0001) %MON dynstat_sss_max              =   3.7403324653603E+01
(PID.TID 0000.0001) %MON dynstat_sss_min              =   2.9846087089642E+01
(PID.TID 0000.0001) %MON dynstat_sss_mean             =   3.4840670218379E+01
(PID.TID 0000.0001) %MON dynstat_sss_sd               =   9.6671577184120E-01
(PID.TID 0000.0001) %MON dynstat_sss_del2             =   8.1207789124446E-02
(PID.TID 0000.0001) %MON extforcing_qnet_max          =   4.0676320648193E+02
(PID.TID 0000.0001) %MON extforcing_qnet_min          =  -1.7750459442139E+02
(PID.TID 0000.0001) %MON extforcing_qnet_mean         =  -1.5620979743309E+01
(PID.TID 0000.0001) %MON extforcing_qnet_sd           =   9.8737713114526E+01
(PID.TID 0000.0001) %MON extforcing_qnet_del2         =   9.1615260297604E+00
(PID.TID 0000.0001) %MON extforcing_qsw_max           =   0.0000000000000E+00
(PID.TID 0000.0001) %MON extforcing_qsw_min           =   0.0000000000000E+00
(PID.TID 0000.0001) %MON extforcing_qsw_mean          =   0.0000000000000E+00
(PID.TID 0000.0001) %MON extforcing_qsw_sd            =   0.0000000000000E+00
(PID.TID 0000.0001) %MON extforcing_qsw_del2          =   0.0000000000000E+00
(PID.TID 0000.0001) %MON extforcing_empmr_max         =   0.0000000000000E+00
(PID.TID 0000.0001) %MON extforcing_empmr_min         =   0.0000000000000E+00
(PID.TID 0000.0001) %MON extforcing_empmr_mean        =   0.0000000000000E+00
(PID.TID 0000.0001) %MON extforcing_empmr_sd          =   0.0000000000000E+00
(PID.TID 0000.0001) %MON extforcing_empmr_del2        =   0.0000000000000E+00
(PID.TID 0000.0001) %MON extforcing_fu_max            =   2.7758594304323E-01
(PID.TID 0000.0001) %MON extforcing_fu_min            =  -1.8336383700371E-01
(PID.TID 0000.0001) %MON extforcing_fu_mean           =   1.6571887414990E-02
(PID.TID 0000.0001) %MON extforcing_fu_sd             =   8.9968040126440E-02
(PID.TID 0000.0001) %MON extforcing_fu_del2           =   7.3449130312538E-03
(PID.TID 0000.0001) %MON extforcing_fv_max            =   1.9943262711167E-01
(PID.TID 0000.0001) %MON extforcing_fv_min            =  -1.6772825270891E-01
(PID.TID 0000.0001) %MON extforcing_fv_mean           =  -5.9441372600145E-03
(PID.TID 0000.0001) %MON extforcing_fv_sd             =   4.5570025863998E-02
(PID.TID 0000.0001) %MON extforcing_fv_del2           =   4.4013196071258E-03
(PID.TID 0000.0001) %MON advcfl_uvel_max              =   1.9167266376513E-02
(PID.TID 0000.0001) %MON advcfl_vvel_max              =   1.4452635107002E-02
(PID.TID 0000.0001) %MON advcfl_wvel_max              =   2.2279272697430E-01
(PID.TID 0000.0001) %MON advcfl_W_hf_max              =   1.5762923153685E-01
(PID.TID 0000.0001) %MON pe_b_mean                    =   2.4125285216157E-04
(PID.TID 0000.0001) %MON ke_max                       =   1.6602783318556E-02
(PID.TID 0000.0001) %MON ke_mean                      =   1.8557200984015E-04
(PID.TID 0000.0001) %MON ke_vol                       =   1.3226782436723E+18
(PID.TID 0000.0001) %MON vort_r_min                   =  -5.3354297145340E-07
(PID.TID 0000.0001) %MON vort_r_max                   =   4.9890609929587E-07
(PID.TID 0000.0001) %MON vort_a_mean                  =  -2.5205769214521E-05
(PID.TID 0000.0001) %MON vort_a_sd                    =   7.3402996546913E-05
(PID.TID 0000.0001) %MON vort_p_mean                  =  -3.1758669332037E-05
(PID.TID 0000.0001) %MON vort_p_sd                    =   1.3126421663569E-04
(PID.TID 0000.0001) %MON surfExpan_theta_mean         =   2.4956697373449E-05
(PID.TID 0000.0001) %MON surfExpan_salt_mean          =   4.2533860054626E-07
(PID.TID 0000.0001) // =======================================================
(PID.TID 0000.0001) // End MONITOR dynamic field statistics
(PID.TID 0000.0001) // =======================================================
time,SST,SSS,fu,fv,Q,E-P,i0,i1,a,b =   2.2464E+06  4.1199E-01  3.4607E+01 -2.7860E-02 -4.2729E-02  2.5650E+02  0.0000E+00     1     2  3.6667E-01  6.3333E-01
time,fu0,fu1,fu =   2.2464E+06 -3.5633E-02 -1.4435E-02 -2.7860E-02  3.666666666666666E-01  6.333333333333333E-01
 cg2d: Sum(rhs),rhsMax =   3.51094153749898E-13  8.18299903790893E+00
(PID.TID 0000.0001)                    cg2d_init_res =    6.09625599473026E-01
(PID.TID 0000.0001)                       cg2d_iters =    25
(PID.TID 0000.0001)                         cg2d_res =    2.54078777403672E-14
(PID.TID 0000.0001) // =======================================================
(PID.TID 0000.0001) // Begin MONITOR dynamic field statistics
(PID.TID 0000.0001) // =======================================================
(PID.TID 0000.0001) %MON time_tsnumber                =                    53
(PID.TID 0000.0001) %MON time_secondsf                =   2.2896000000000E+06
(PID.TID 0000.0001) %MON dynstat_eta_max              =   9.7709382685065E-01
(PID.TID 0000.0001) %MON dynstat_eta_min              =  -1.3491583331885E+00
(PID.TID 0000.0001) %MON dynstat_eta_mean             =  -4.2366778792680E-16
(PID.TID 0000.0001) %MON dynstat_eta_sd               =   4.3587849686232E-01
(PID.TID 0000.0001) %MON dynstat_eta_del2             =   2.4736511712433E-02
(PID.TID 0000.0001) %MON dynstat_uvel_max             =   1.1028412550501E-01
(PID.TID 0000.0001) %MON dynstat_uvel_min             =  -1.8546863417140E-01
(PID.TID 0000.0001) %MON dynstat_uvel_mean            =  -1.9626506828737E-03
(PID.TID 0000.0001) %MON dynstat_uvel_sd              =   1.4996736130178E-02
(PID.TID 0000.0001) %MON dynstat_uvel_del2            =   3.3046441986984E-03
(PID.TID 0000.0001) %MON dynstat_vvel_max             =   1.4167073932426E-01
(PID.TID 0000.0001) %MON dynstat_vvel_min             =  -1.2047609480091E-01
(PID.TID 0000.0001) %MON dynstat_vvel_mean            =   4.6453998860488E-04
(PID.TID 0000.0001) %MON dynstat_vvel_sd              =   1.3822422015818E-02
(PID.TID 0000.0001) %MON dynstat_vvel_del2            =   3.3930570228353E-03
(PID.TID 0000.0001) %MON dynstat_wvel_max             =   2.0008342253394E-04
(PID.TID 0000.0001) %MON dynstat_wvel_min             =  -3.1287215360270E-04
(PID.TID 0000.0001) %MON dynstat_wvel_mean            =   3.5961654542541E-22
(PID.TID 0000.0001) %MON dynstat_wvel_sd              =   2.2635967718120E-05
(PID.TID 0000.0001) %MON dynstat_wvel_del2            =   8.2110312917944E-06
(PID.TID 0000.0001) %MON dynstat_theta_max            =   3.0076650757447E+01
(PID.TID 0000.0001) %MON dynstat_theta_min            =  -2.0190229860933E+00
(PID.TID 0000.0001) %MON dynstat_theta_mean           =   3.5911044433649E+00
(PID.TID 0000.0001) %MON dynstat_theta_sd             =   4.3452872296153E+00
(PID.TID 0000.0001) %MON dynstat_theta_del2           =   1.3852970872536E-01
(PID.TID 0000.0001) %MON dynstat_salt_max             =   3.7403172610483E+01
(PID.TID 0000.0001) %MON dynstat_salt_min             =   2.9847200473684E+01
(PID.TID 0000.0001) %MON dynstat_salt_mean            =   3.4715974232693E+01
(PID.TID 0000.0001) %MON dynstat_salt_sd              =   2.9489015511030E-01
(PID.TID 0000.0001) %MON dynstat_salt_del2            =   2.5775974332009E-02
(PID.TID 0000.0001) %MON dynstat_sst_max              =   3.0076650757447E+01
(PID.TID 0000.0001) %MON dynstat_sst_min              =  -1.9433679218504E+00
(PID.TID 0000.0001) %MON dynstat_sst_mean             =   1.8571392313801E+01
(PID.TID 0000.0001) %MON dynstat_sst_sd               =   8.9164599125528E+00
(PID.TID 0000.0001) %MON dynstat_sst_del2             =   2.7460556109335E-01
(PID.TID 0000.0001) %MON dynstat_sss_max              =   3.7403171214972E+01
(PID.TID 0000.0001) %MON dynstat_sss_min              =   2.9847200473684E+01
(PID.TID 0000.0001) %MON dynstat_sss_mean             =   3.4840836151393E+01
(PID.TID 0000.0001) %MON dynstat_sss_sd               =   9.6644152742088E-01
(PID.TID 0000.0001) %MON dynstat_sss_del2             =   8.1125169732586E-02
(PID.TID 0000.0001) %MON extforcing_qnet_max          =   4.0510366312663E+02
(PID.TID 0000.0001) %MON extforcing_qnet_min          =  -1.7738483479818E+02
(PID.TID 0000.0001) %MON extforcing_qnet_mean         =  -1.5578525159607E+01
(PID.TID 0000.0001) %MON extforcing_qnet_sd           =   9.8219108614254E+01
(PID.TID 0000.0001) %MON extforcing_qnet_del2         =   9.1403635427437E+00
(PID.TID 0000.0001) %MON extforcing_qsw_max           =   0.0000000000000E+00
(PID.TID 0000.0001) %MON extforcing_qsw_min           =   0.0000000000000E+00
(PID.TID 0000.0001) %MON extforcing_qsw_mean          =   0.0000000000000E+00
(PID.TID 0000.0001) %MON extforcing_qsw_sd            =   0.0000000000000E+00
(PID.TID 0000.0001) %MON extforcing_qsw_del2          =   0.0000000000000E+00
(PID.TID 0000.0001) %MON extforcing_empmr_max         =   0.0000000000000E+00
(PID.TID 0000.0001) %MON extforcing_empmr_min         =   0.0000000000000E+00
(PID.TID 0000.0001) %MON extforcing_empmr_mean        =   0.0000000000000E+00
(PID.TID 0000.0001) %MON extforcing_empmr_sd          =   0.0000000000000E+00
(PID.TID 0000.0001) %MON extforcing_empmr_del2        =   0.0000000000000E+00
(PID.TID 0000.0001) %MON extforcing_fu_max            =   2.7827952206135E-01
(PID.TID 0000.0001) %MON extforcing_fu_min            =  -1.8419379889965E-01
(PID.TID 0000.0001) %MON extforcing_fu_mean           =   1.6599037522725E-02
(PID.TID 0000.0001) %MON extforcing_fu_sd             =   8.9963961949749E-02
(PID.TID 0000.0001) %MON extforcing_fu_del2           =   7.3418806531090E-03
(PID.TID 0000.0001) %MON extforcing_fv_max            =   1.9782840361198E-01
(PID.TID 0000.0001) %MON extforcing_fv_min            =  -1.6723260283470E-01
(PID.TID 0000.0001) %MON extforcing_fv_mean           =  -5.9767677133721E-03
(PID.TID 0000.0001) %MON extforcing_fv_sd             =   4.5481939075567E-02
(PID.TID 0000.0001) %MON extforcing_fv_del2           =   4.3933176939132E-03
(PID.TID 0000.0001) %MON advcfl_uvel_max              =   1.9057012070991E-02
(PID.TID 0000.0001) %MON advcfl_vvel_max              =   1.3762176262606E-02
(PID.TID 0000.0001) %MON advcfl_wvel_max              =   2.1736007734727E-01
(PID.TID 0000.0001) %MON advcfl_W_hf_max              =   1.5375579402363E-01
(PID.TID 0000.0001) %MON pe_b_mean                    =   2.4311518696273E-04
(PID.TID 0000.0001) %MON ke_max                       =   1.6501961008702E-02
(PID.TID 0000.0001) %MON ke_mean                      =   1.8979824518273E-04
(PID.TID 0000.0001) %MON ke_vol                       =   1.3226782436723E+18
(PID.TID 0000.0001) %MON vort_r_min                   =  -5.3352175017423E-07
(PID.TID 0000.0001) %MON vort_r_max                   =   4.9889650409619E-07
(PID.TID 0000.0001) %MON vort_a_mean                  =  -2.5205769230522E-05
(PID.TID 0000.0001) %MON vort_a_sd                    =   7.3403006442198E-05
(PID.TID 0000.0001) %MON vort_p_mean                  =  -3.1758669352197E-05
(PID.TID 0000.0001) %MON vort_p_sd                    =   1.3126424443714E-04
(PID.TID 0000.0001) %MON surfExpan_theta_mean         =   2.3483330935528E-05
(PID.TID 0000.0001) %MON surfExpan_salt_mean          =   1.2027896919554E-07
(PID.TID 0000.0001) // =======================================================
(PID.TID 0000.0001) // End MONITOR dynamic field statistics
(PID.TID 0000.0001) // =======================================================
time,SST,SSS,fu,fv,Q,E-P,i0,i1,a,b =   2.2896E+06  3.8715E-01  3.4602E+01 -2.7507E-02 -4.2069E-02  2.5608E+02  0.0000E+00     1     2  3.8333E-01  6.1667E-01
time,fu0,fu1,fu =   2.2896E+06 -3.5633E-02 -1.4435E-02 -2.7507E-02  3.833333333333334E-01  6.166666666666667E-01
 cg2d: Sum(rhs),rhsMax =   2.60631793924659E-13  9.40876964847958E+00
(PID.TID 0000.0001)                    cg2d_init_res =    5.23264463591175E-01
(PID.TID 0000.0001)                       cg2d_iters =    24
(PID.TID 0000.0001)                         cg2d_res =    7.55486615521714E-14
(PID.TID 0000.0001) // =======================================================
(PID.TID 0000.0001) // Begin MONITOR dynamic field statistics
(PID.TID 0000.0001) // =======================================================
(PID.TID 0000.0001) %MON time_tsnumber                =                    54
(PID.TID 0000.0001) %MON time_secondsf                =   2.3328000000000E+06
(PID.TID 0000.0001) %MON dynstat_eta_max              =   1.1197981248000E+00
(PID.TID 0000.0001) %MON dynstat_eta_min              =  -1.3338887025358E+00
(PID.TID 0000.0001) %MON dynstat_eta_mean             =  -5.7765418967093E-16
(PID.TID 0000.0001) %MON dynstat_eta_sd               =   4.3743742573842E-01
(PID.TID 0000.0001) %MON dynstat_eta_del2             =   2.4728345945691E-02
(PID.TID 0000.0001) %MON dynstat_uvel_max             =   1.1347925518954E-01
(PID.TID 0000.0001) %MON dynstat_uvel_min             =  -1.8428491691402E-01
(PID.TID 0000.0001) %MON dynstat_uvel_mean            =  -1.8789053914314E-03
(PID.TID 0000.0001) %MON dynstat_uvel_sd              =   1.5162848974854E-02
(PID.TID 0000.0001) %MON dynstat_uvel_del2            =   3.3169699416574E-03
(PID.TID 0000.0001) %MON dynstat_vvel_max             =   1.3025300012959E-01
(PID.TID 0000.0001) %MON dynstat_vvel_min             =  -1.2119560264233E-01
(PID.TID 0000.0001) %MON dynstat_vvel_mean            =   1.4030014443182E-04
(PID.TID 0000.0001) %MON dynstat_vvel_sd              =   1.4014411911459E-02
(PID.TID 0000.0001) %MON dynstat_vvel_del2            =   3.4018988015483E-03
(PID.TID 0000.0001) %MON dynstat_wvel_max             =   2.0790009192377E-04
(PID.TID 0000.0001) %MON dynstat_wvel_min             =  -3.0911763006539E-04
(PID.TID 0000.0001) %MON dynstat_wvel_mean            =   3.0789378432363E-22
(PID.TID 0000.0001) %MON dynstat_wvel_sd              =   2.2727676387874E-05
(PID.TID 0000.0001) %MON dynstat_wvel_del2            =   8.1288114911239E-06
(PID.TID 0000.0001) %MON dynstat_theta_max            =   3.0139874662493E+01
(PID.TID 0000.0001) %MON dynstat_theta_min            =  -2.0201458420403E+00
(PID.TID 0000.0001) %MON dynstat_theta_mean           =   3.5908900006773E+00
(PID.TID 0000.0001) %MON dynstat_theta_sd             =   4.3444505640477E+00
(PID.TID 0000.0001) %MON dynstat_theta_del2           =   1.3842774498153E-01
(PID.TID 0000.0001) %MON dynstat_salt_max             =   3.7402908057840E+01
(PID.TID 0000.0001) %MON dynstat_salt_min             =   2.9848268516059E+01
(PID.TID 0000.0001) %MON dynstat_salt_mean            =   3.4715975263954E+01
(PID.TID 0000.0001) %MON dynstat_salt_sd              =   2.9491686168288E-01
(PID.TID 0000.0001) %MON dynstat_salt_del2            =   2.5744798809604E-02
(PID.TID 0000.0001) %MON dynstat_sst_max              =   3.0139874662493E+01
(PID.TID 0000.0001) %MON dynstat_sst_min              =  -1.9438072406229E+00
(PID.TID 0000.0001) %MON dynstat_sst_mean             =   1.8574474846856E+01
(PID.TID 0000.0001) %MON dynstat_sst_sd               =   8.9108080217809E+00
(PID.TID 0000.0001) %MON dynstat_sst_del2             =   2.7462219308221E-01
(PID.TID 0000.0001) %MON dynstat_sss_max              =   3.7402906707044E+01
(PID.TID 0000.0001) %MON dynstat_sss_min              =   2.9848268516059E+01
(PID.TID 0000.0001) %MON dynstat_sss_mean             =   3.4841099772755E+01
(PID.TID 0000.0001) %MON dynstat_sss_sd               =   9.6612252985252E-01
(PID.TID 0000.0001) %MON dynstat_sss_del2             =   8.1027400071312E-02
(PID.TID 0000.0001) %MON extforcing_qnet_max          =   4.0344411977132E+02
(PID.TID 0000.0001) %MON extforcing_qnet_min          =  -1.7726507517497E+02
(PID.TID 0000.0001) %MON extforcing_qnet_mean         =  -1.5536070575905E+01
(PID.TID 0000.0001) %MON extforcing_qnet_sd           =   9.7701692973855E+01
(PID.TID 0000.0001) %MON extforcing_qnet_del2         =   9.1196406104074E+00
(PID.TID 0000.0001) %MON extforcing_qsw_max           =   0.0000000000000E+00
(PID.TID 0000.0001) %MON extforcing_qsw_min           =   0.0000000000000E+00
(PID.TID 0000.0001) %MON extforcing_qsw_mean          =   0.0000000000000E+00
(PID.TID 0000.0001) %MON extforcing_qsw_sd            =   0.0000000000000E+00
(PID.TID 0000.0001) %MON extforcing_qsw_del2          =   0.0000000000000E+00
(PID.TID 0000.0001) %MON extforcing_empmr_max         =   0.0000000000000E+00
(PID.TID 0000.0001) %MON extforcing_empmr_min         =   0.0000000000000E+00
(PID.TID 0000.0001) %MON extforcing_empmr_mean        =   0.0000000000000E+00
(PID.TID 0000.0001) %MON extforcing_empmr_sd          =   0.0000000000000E+00
(PID.TID 0000.0001) %MON extforcing_empmr_del2        =   0.0000000000000E+00
(PID.TID 0000.0001) %MON extforcing_fu_max            =   2.7897310107946E-01
(PID.TID 0000.0001) %MON extforcing_fu_min            =  -1.8502376079559E-01
(PID.TID 0000.0001) %MON extforcing_fu_mean           =   1.6626187630459E-02
(PID.TID 0000.0001) %MON extforcing_fu_sd             =   8.9964279229972E-02
(PID.TID 0000.0001) %MON extforcing_fu_del2           =   7.3402616632781E-03
(PID.TID 0000.0001) %MON extforcing_fv_max            =   1.9622418011228E-01
(PID.TID 0000.0001) %MON extforcing_fv_min            =  -1.6673695296049E-01
(PID.TID 0000.0001) %MON extforcing_fv_mean           =  -6.0093981667296E-03
(PID.TID 0000.0001) %MON extforcing_fv_sd             =   4.5397632699791E-02
(PID.TID 0000.0001) %MON extforcing_fv_del2           =   4.3861545599294E-03
(PID.TID 0000.0001) %MON advcfl_uvel_max              =   1.8754467902092E-02
(PID.TID 0000.0001) %MON advcfl_vvel_max              =   1.2653034459105E-02
(PID.TID 0000.0001) %MON advcfl_wvel_max              =   2.0549418904710E-01
(PID.TID 0000.0001) %MON advcfl_W_hf_max              =   1.5340667669327E-01
(PID.TID 0000.0001) %MON pe_b_mean                    =   2.4485731022635E-04
(PID.TID 0000.0001) %MON ke_max                       =   1.6380449096491E-02
(PID.TID 0000.0001) %MON ke_mean                      =   1.9423944482609E-04
(PID.TID 0000.0001) %MON ke_vol                       =   1.3226782436723E+18
(PID.TID 0000.0001) %MON vort_r_min                   =  -5.3204323407665E-07
(PID.TID 0000.0001) %MON vort_r_max                   =   4.9747462088857E-07
(PID.TID 0000.0001) %MON vort_a_mean                  =  -2.5205769244164E-05
(PID.TID 0000.0001) %MON vort_a_sd                    =   7.3403019533452E-05
(PID.TID 0000.0001) %MON vort_p_mean                  =  -3.1758669369387E-05
(PID.TID 0000.0001) %MON vort_p_sd                    =   1.3126427750824E-04
(PID.TID 0000.0001) %MON surfExpan_theta_mean         =   2.1998304802219E-05
(PID.TID 0000.0001) %MON surfExpan_salt_mean          =  -1.3046323021352E-07
(PID.TID 0000.0001) // =======================================================
(PID.TID 0000.0001) // End MONITOR dynamic field statistics
(PID.TID 0000.0001) // =======================================================
time,SST,SSS,fu,fv,Q,E-P,i0,i1,a,b =   2.3328E+06  3.6231E-01  3.4597E+01 -2.7154E-02 -4.1408E-02  2.5565E+02  0.0000E+00     1     2  4.0000E-01  6.0000E-01
time,fu0,fu1,fu =   2.3328E+06 -3.5633E-02 -1.4435E-02 -2.7154E-02  4.000000000000000E-01  6.000000000000000E-01
 cg2d: Sum(rhs),rhsMax =   8.21377688087210E-13  1.05293280195721E+01
(PID.TID 0000.0001)                    cg2d_init_res =    4.61218943549846E-01
(PID.TID 0000.0001)                       cg2d_iters =    24
(PID.TID 0000.0001)                         cg2d_res =    8.46648259434245E-14
(PID.TID 0000.0001) // =======================================================
(PID.TID 0000.0001) // Begin MONITOR dynamic field statistics
(PID.TID 0000.0001) // =======================================================
(PID.TID 0000.0001) %MON time_tsnumber                =                    55
(PID.TID 0000.0001) %MON time_secondsf                =   2.3760000000000E+06
(PID.TID 0000.0001) %MON dynstat_eta_max              =   1.2502166020643E+00
(PID.TID 0000.0001) %MON dynstat_eta_min              =  -1.3161729532574E+00
(PID.TID 0000.0001) %MON dynstat_eta_mean             =  -9.4672911434383E-16
(PID.TID 0000.0001) %MON dynstat_eta_sd               =   4.3892043109394E-01
(PID.TID 0000.0001) %MON dynstat_eta_del2             =   2.4774121865275E-02
(PID.TID 0000.0001) %MON dynstat_uvel_max             =   1.1737421466604E-01
(PID.TID 0000.0001) %MON dynstat_uvel_min             =  -1.8285784632119E-01
(PID.TID 0000.0001) %MON dynstat_uvel_mean            =  -1.7794578212393E-03
(PID.TID 0000.0001) %MON dynstat_uvel_sd              =   1.5340178731139E-02
(PID.TID 0000.0001) %MON dynstat_uvel_del2            =   3.3293394329640E-03
(PID.TID 0000.0001) %MON dynstat_vvel_max             =   1.2079276618173E-01
(PID.TID 0000.0001) %MON dynstat_vvel_min             =  -1.2123557372734E-01
(PID.TID 0000.0001) %MON dynstat_vvel_mean            =  -1.6524341110604E-04
(PID.TID 0000.0001) %MON dynstat_vvel_sd              =   1.4192254542907E-02
(PID.TID 0000.0001) %MON dynstat_vvel_del2            =   3.4062189631822E-03
(PID.TID 0000.0001) %MON dynstat_wvel_max             =   2.1478135266909E-04
(PID.TID 0000.0001) %MON dynstat_wvel_min             =  -3.0381418014676E-04
(PID.TID 0000.0001) %MON dynstat_wvel_mean            =  -2.2638742885792E-23
(PID.TID 0000.0001) %MON dynstat_wvel_sd              =   2.2762121272851E-05
(PID.TID 0000.0001) %MON dynstat_wvel_del2            =   8.0169803243913E-06
(PID.TID 0000.0001) %MON dynstat_theta_max            =   3.0189240655348E+01
(PID.TID 0000.0001) %MON dynstat_theta_min            =  -2.0211998523927E+00
(PID.TID 0000.0001) %MON dynstat_theta_mean           =   3.5906922006326E+00
(PID.TID 0000.0001) %MON dynstat_theta_sd             =   4.3436823522986E+00
(PID.TID 0000.0001) %MON dynstat_theta_del2           =   1.3830092546859E-01
(PID.TID 0000.0001) %MON dynstat_salt_max             =   3.7402527222104E+01
(PID.TID 0000.0001) %MON dynstat_salt_min             =   2.9849307670180E+01
(PID.TID 0000.0001) %MON dynstat_salt_mean            =   3.4715978742046E+01
(PID.TID 0000.0001) %MON dynstat_salt_sd              =   2.9495088058522E-01
(PID.TID 0000.0001) %MON dynstat_salt_del2            =   2.5711987755973E-02
(PID.TID 0000.0001) %MON dynstat_sst_max              =   3.0189240655348E+01
(PID.TID 0000.0001) %MON dynstat_sst_min              =  -1.9442544738223E+00
(PID.TID 0000.0001) %MON dynstat_sst_mean             =   1.8577466157857E+01
(PID.TID 0000.0001) %MON dynstat_sst_sd               =   8.9058613489129E+00
(PID.TID 0000.0001) %MON dynstat_sst_del2             =   2.7450685676730E-01
(PID.TID 0000.0001) %MON dynstat_sss_max              =   3.7402525922337E+01
(PID.TID 0000.0001) %MON dynstat_sss_min              =   2.9849307670180E+01
(PID.TID 0000.0001) %MON dynstat_sss_mean             =   3.4841386681590E+01
(PID.TID 0000.0001) %MON dynstat_sss_sd               =   9.6580146396197E-01
(PID.TID 0000.0001) %MON dynstat_sss_del2             =   8.0930964446693E-02
(PID.TID 0000.0001) %MON extforcing_qnet_max          =   4.0178457641602E+02
(PID.TID 0000.0001) %MON extforcing_qnet_min          =  -1.7714531555176E+02
(PID.TID 0000.0001) %MON extforcing_qnet_mean         =  -1.5493615992204E+01
(PID.TID 0000.0001) %MON extforcing_qnet_sd           =   9.7185485181804E+01
(PID.TID 0000.0001) %MON extforcing_qnet_del2         =   9.0993647100678E+00
(PID.TID 0000.0001) %MON extforcing_qsw_max           =   0.0000000000000E+00
(PID.TID 0000.0001) %MON extforcing_qsw_min           =   0.0000000000000E+00
(PID.TID 0000.0001) %MON extforcing_qsw_mean          =   0.0000000000000E+00
(PID.TID 0000.0001) %MON extforcing_qsw_sd            =   0.0000000000000E+00
(PID.TID 0000.0001) %MON extforcing_qsw_del2          =   0.0000000000000E+00
(PID.TID 0000.0001) %MON extforcing_empmr_max         =   0.0000000000000E+00
(PID.TID 0000.0001) %MON extforcing_empmr_min         =   0.0000000000000E+00
(PID.TID 0000.0001) %MON extforcing_empmr_mean        =   0.0000000000000E+00
(PID.TID 0000.0001) %MON extforcing_empmr_sd          =   0.0000000000000E+00
(PID.TID 0000.0001) %MON extforcing_empmr_del2        =   0.0000000000000E+00
(PID.TID 0000.0001) %MON extforcing_fu_max            =   2.7966668009758E-01
(PID.TID 0000.0001) %MON extforcing_fu_min            =  -1.8585372269154E-01
(PID.TID 0000.0001) %MON extforcing_fu_mean           =   1.6653337738194E-02
(PID.TID 0000.0001) %MON extforcing_fu_sd             =   8.9968991920605E-02
(PID.TID 0000.0001) %MON extforcing_fu_del2           =   7.3409372029193E-03
(PID.TID 0000.0001) %MON extforcing_fv_max            =   1.9461995661259E-01
(PID.TID 0000.0001) %MON extforcing_fv_min            =  -1.6624130308628E-01
(PID.TID 0000.0001) %MON extforcing_fv_mean           =  -6.0420286200872E-03
(PID.TID 0000.0001) %MON extforcing_fv_sd             =   4.5317127835513E-02
(PID.TID 0000.0001) %MON extforcing_fv_del2           =   4.3801008843757E-03
(PID.TID 0000.0001) %MON advcfl_uvel_max              =   1.9729234719753E-02
(PID.TID 0000.0001) %MON advcfl_vvel_max              =   1.1777063795193E-02
(PID.TID 0000.0001) %MON advcfl_wvel_max              =   1.8780260726055E-01
(PID.TID 0000.0001) %MON advcfl_W_hf_max              =   1.6433605451213E-01
(PID.TID 0000.0001) %MON pe_b_mean                    =   2.4652036059999E-04
(PID.TID 0000.0001) %MON ke_max                       =   1.6324976052827E-02
(PID.TID 0000.0001) %MON ke_mean                      =   1.9878707144286E-04
(PID.TID 0000.0001) %MON ke_vol                       =   1.3226782436723E+18
(PID.TID 0000.0001) %MON vort_r_min                   =  -5.2931846514758E-07
(PID.TID 0000.0001) %MON vort_r_max                   =   4.9464162047392E-07
(PID.TID 0000.0001) %MON vort_a_mean                  =  -2.5205769254588E-05
(PID.TID 0000.0001) %MON vort_a_sd                    =   7.3403035623833E-05
(PID.TID 0000.0001) %MON vort_p_mean                  =  -3.1758669382520E-05
(PID.TID 0000.0001) %MON vort_p_sd                    =   1.3126431446343E-04
(PID.TID 0000.0001) %MON surfExpan_theta_mean         =   2.0526118832137E-05
(PID.TID 0000.0001) %MON surfExpan_salt_mean          =  -3.2277501387639E-07
(PID.TID 0000.0001) // =======================================================
(PID.TID 0000.0001) // End MONITOR dynamic field statistics
(PID.TID 0000.0001) // =======================================================
time,SST,SSS,fu,fv,Q,E-P,i0,i1,a,b =   2.3760E+06  3.3747E-01  3.4592E+01 -2.6800E-02 -4.0748E-02  2.5523E+02  0.0000E+00     1     2  4.1667E-01  5.8333E-01
time,fu0,fu1,fu =   2.3760E+06 -3.5633E-02 -1.4435E-02 -2.6800E-02  4.166666666666667E-01  5.833333333333333E-01
 cg2d: Sum(rhs),rhsMax =   1.40624317745974E-12  1.15144713398793E+01
(PID.TID 0000.0001)                    cg2d_init_res =    4.14917408032889E-01
(PID.TID 0000.0001)                       cg2d_iters =    24
(PID.TID 0000.0001)                         cg2d_res =    7.75889687328447E-14
(PID.TID 0000.0001) // =======================================================
(PID.TID 0000.0001) // Begin MONITOR dynamic field statistics
(PID.TID 0000.0001) // =======================================================
(PID.TID 0000.0001) %MON time_tsnumber                =                    56
(PID.TID 0000.0001) %MON time_secondsf                =   2.4192000000000E+06
(PID.TID 0000.0001) %MON dynstat_eta_max              =   1.3648484739703E+00
(PID.TID 0000.0001) %MON dynstat_eta_min              =  -1.2973506707000E+00
(PID.TID 0000.0001) %MON dynstat_eta_mean             =  -1.0573723486057E-15
(PID.TID 0000.0001) %MON dynstat_eta_sd               =   4.4035600701393E-01
(PID.TID 0000.0001) %MON dynstat_eta_del2             =   2.4959699319634E-02
(PID.TID 0000.0001) %MON dynstat_uvel_max             =   1.2713035857248E-01
(PID.TID 0000.0001) %MON dynstat_uvel_min             =  -1.8119585441751E-01
(PID.TID 0000.0001) %MON dynstat_uvel_mean            =  -1.6660162722170E-03
(PID.TID 0000.0001) %MON dynstat_uvel_sd              =   1.5530332390977E-02
(PID.TID 0000.0001) %MON dynstat_uvel_del2            =   3.3431148523285E-03
(PID.TID 0000.0001) %MON dynstat_vvel_max             =   1.2381718664891E-01
(PID.TID 0000.0001) %MON dynstat_vvel_min             =  -1.2060238694737E-01
(PID.TID 0000.0001) %MON dynstat_vvel_mean            =  -4.4910158046432E-04
(PID.TID 0000.0001) %MON dynstat_vvel_sd              =   1.4347163147371E-02
(PID.TID 0000.0001) %MON dynstat_vvel_del2            =   3.4062060108116E-03
(PID.TID 0000.0001) %MON dynstat_wvel_max             =   2.2058212183320E-04
(PID.TID 0000.0001) %MON dynstat_wvel_min             =  -2.9647972743561E-04
(PID.TID 0000.0001) %MON dynstat_wvel_mean            =   2.7570181305696E-23
(PID.TID 0000.0001) %MON dynstat_wvel_sd              =   2.2739548547050E-05
(PID.TID 0000.0001) %MON dynstat_wvel_del2            =   7.8848505196298E-06
(PID.TID 0000.0001) %MON dynstat_theta_max            =   3.0223905481495E+01
(PID.TID 0000.0001) %MON dynstat_theta_min            =  -2.0221724994973E+00
(PID.TID 0000.0001) %MON dynstat_theta_mean           =   3.5905107674546E+00
(PID.TID 0000.0001) %MON dynstat_theta_sd             =   4.3429894119986E+00
(PID.TID 0000.0001) %MON dynstat_theta_del2           =   1.3816602040473E-01
(PID.TID 0000.0001) %MON dynstat_salt_max             =   3.7402029738544E+01
(PID.TID 0000.0001) %MON dynstat_salt_min             =   2.9850334607916E+01
(PID.TID 0000.0001) %MON dynstat_salt_mean            =   3.4715983981419E+01
(PID.TID 0000.0001) %MON dynstat_salt_sd              =   2.9499257138667E-01
(PID.TID 0000.0001) %MON dynstat_salt_del2            =   2.5686081246621E-02
(PID.TID 0000.0001) %MON dynstat_sst_max              =   3.0223905481495E+01
(PID.TID 0000.0001) %MON dynstat_sst_min              =  -1.9446700015795E+00
(PID.TID 0000.0001) %MON dynstat_sst_mean             =   1.8580695718939E+01
(PID.TID 0000.0001) %MON dynstat_sst_sd               =   8.9012800595193E+00
(PID.TID 0000.0001) %MON dynstat_sst_del2             =   2.7439909631320E-01
(PID.TID 0000.0001) %MON dynstat_sss_max              =   3.7402028492690E+01
(PID.TID 0000.0001) %MON dynstat_sss_min              =   2.9850334607916E+01
(PID.TID 0000.0001) %MON dynstat_sss_mean             =   3.4841732210567E+01
(PID.TID 0000.0001) %MON dynstat_sss_sd               =   9.6546846954791E-01
(PID.TID 0000.0001) %MON dynstat_sss_del2             =   8.0889878023798E-02
(PID.TID 0000.0001) %MON extforcing_qnet_max          =   4.0012503306071E+02
(PID.TID 0000.0001) %MON extforcing_qnet_min          =  -1.7702555592855E+02
(PID.TID 0000.0001) %MON extforcing_qnet_mean         =  -1.5451161408502E+01
(PID.TID 0000.0001) %MON extforcing_qnet_sd           =   9.6670504587360E+01
(PID.TID 0000.0001) %MON extforcing_qnet_del2         =   9.0795706899235E+00
(PID.TID 0000.0001) %MON extforcing_qsw_max           =   0.0000000000000E+00
(PID.TID 0000.0001) %MON extforcing_qsw_min           =   0.0000000000000E+00
(PID.TID 0000.0001) %MON extforcing_qsw_mean          =   0.0000000000000E+00
(PID.TID 0000.0001) %MON extforcing_qsw_sd            =   0.0000000000000E+00
(PID.TID 0000.0001) %MON extforcing_qsw_del2          =   0.0000000000000E+00
(PID.TID 0000.0001) %MON extforcing_empmr_max         =   0.0000000000000E+00
(PID.TID 0000.0001) %MON extforcing_empmr_min         =   0.0000000000000E+00
(PID.TID 0000.0001) %MON extforcing_empmr_mean        =   0.0000000000000E+00
(PID.TID 0000.0001) %MON extforcing_empmr_sd          =   0.0000000000000E+00
(PID.TID 0000.0001) %MON extforcing_empmr_del2        =   0.0000000000000E+00
(PID.TID 0000.0001) %MON extforcing_fu_max            =   2.8036025911570E-01
(PID.TID 0000.0001) %MON extforcing_fu_min            =  -1.8668368458748E-01
(PID.TID 0000.0001) %MON extforcing_fu_mean           =   1.6680487845928E-02
(PID.TID 0000.0001) %MON extforcing_fu_sd             =   8.9978099331007E-02
(PID.TID 0000.0001) %MON extforcing_fu_del2           =   7.3429087977424E-03
(PID.TID 0000.0001) %MON extforcing_fv_max            =   1.9301573311289E-01
(PID.TID 0000.0001) %MON extforcing_fv_min            =  -1.6574565321207E-01
(PID.TID 0000.0001) %MON extforcing_fv_mean           =  -6.0746590734448E-03
(PID.TID 0000.0001) %MON extforcing_fv_sd             =   4.5240444776979E-02
(PID.TID 0000.0001) %MON extforcing_fv_del2           =   4.3751579030076E-03
(PID.TID 0000.0001) %MON advcfl_uvel_max              =   2.1010555852227E-02
(PID.TID 0000.0001) %MON advcfl_vvel_max              =   1.2027846788477E-02
(PID.TID 0000.0001) %MON advcfl_wvel_max              =   1.8949833727986E-01
(PID.TID 0000.0001) %MON advcfl_W_hf_max              =   1.7533719669791E-01
(PID.TID 0000.0001) %MON pe_b_mean                    =   2.4813558475510E-04
(PID.TID 0000.0001) %MON ke_max                       =   1.6308000235216E-02
(PID.TID 0000.0001) %MON ke_mean                      =   2.0333946283641E-04
(PID.TID 0000.0001) %MON ke_vol                       =   1.3226782436723E+18
(PID.TID 0000.0001) %MON vort_r_min                   =  -5.2556432075488E-07
(PID.TID 0000.0001) %MON vort_r_max                   =   4.9041290973415E-07
(PID.TID 0000.0001) %MON vort_a_mean                  =  -2.5205769261135E-05
(PID.TID 0000.0001) %MON vort_a_sd                    =   7.3403054450438E-05
(PID.TID 0000.0001) %MON vort_p_mean                  =  -3.1758669390769E-05
(PID.TID 0000.0001) %MON vort_p_sd                    =   1.3126435388762E-04
(PID.TID 0000.0001) %MON surfExpan_theta_mean         =   1.9082323441735E-05
(PID.TID 0000.0001) %MON surfExpan_salt_mean          =  -4.5644491127581E-07
(PID.TID 0000.0001) // =======================================================
(PID.TID 0000.0001) // End MONITOR dynamic field statistics
(PID.TID 0000.0001) // =======================================================
time,SST,SSS,fu,fv,Q,E-P,i0,i1,a,b =   2.4192E+06  3.1264E-01  3.4587E+01 -2.6447E-02 -4.0088E-02  2.5481E+02  0.0000E+00     1     2  4.3333E-01  5.6667E-01
time,fu0,fu1,fu =   2.4192E+06 -3.5633E-02 -1.4435E-02 -2.6447E-02  4.333333333333333E-01  5.666666666666667E-01
 cg2d: Sum(rhs),rhsMax =   1.19135257214964E-12  1.23395344882040E+01
(PID.TID 0000.0001)                    cg2d_init_res =    3.79171764807858E-01
(PID.TID 0000.0001)                       cg2d_iters =    24
(PID.TID 0000.0001)                         cg2d_res =    7.02451041196440E-14
(PID.TID 0000.0001) // =======================================================
(PID.TID 0000.0001) // Begin MONITOR dynamic field statistics
(PID.TID 0000.0001) // =======================================================
(PID.TID 0000.0001) %MON time_tsnumber                =                    57
(PID.TID 0000.0001) %MON time_secondsf                =   2.4624000000000E+06
(PID.TID 0000.0001) %MON dynstat_eta_max              =   1.4608336083757E+00
(PID.TID 0000.0001) %MON dynstat_eta_min              =  -1.2826897499301E+00
(PID.TID 0000.0001) %MON dynstat_eta_mean             =  -1.5661557592572E-15
(PID.TID 0000.0001) %MON dynstat_eta_sd               =   4.4175971193386E-01
(PID.TID 0000.0001) %MON dynstat_eta_del2             =   2.5205400789909E-02
(PID.TID 0000.0001) %MON dynstat_uvel_max             =   1.3584788493687E-01
(PID.TID 0000.0001) %MON dynstat_uvel_min             =  -1.7930875810003E-01
(PID.TID 0000.0001) %MON dynstat_uvel_mean            =  -1.5404250684127E-03
(PID.TID 0000.0001) %MON dynstat_uvel_sd              =   1.5733833084751E-02
(PID.TID 0000.0001) %MON dynstat_uvel_del2            =   3.3585576022073E-03
(PID.TID 0000.0001) %MON dynstat_vvel_max             =   1.2645596295831E-01
(PID.TID 0000.0001) %MON dynstat_vvel_min             =  -1.1931513071816E-01
(PID.TID 0000.0001) %MON dynstat_vvel_mean            =  -7.0883571755563E-04
(PID.TID 0000.0001) %MON dynstat_vvel_sd              =   1.4472795283513E-02
(PID.TID 0000.0001) %MON dynstat_vvel_del2            =   3.4016890863236E-03
(PID.TID 0000.0001) %MON dynstat_wvel_max             =   2.2518933905429E-04
(PID.TID 0000.0001) %MON dynstat_wvel_min             =  -2.8731697020033E-04
(PID.TID 0000.0001) %MON dynstat_wvel_mean            =   4.0756618271290E-22
(PID.TID 0000.0001) %MON dynstat_wvel_sd              =   2.2664354498880E-05
(PID.TID 0000.0001) %MON dynstat_wvel_del2            =   7.7461288898657E-06
(PID.TID 0000.0001) %MON dynstat_theta_max            =   3.0243263706821E+01
(PID.TID 0000.0001) %MON dynstat_theta_min            =  -2.0230592317562E+00
(PID.TID 0000.0001) %MON dynstat_theta_mean           =   3.5903452279288E+00
(PID.TID 0000.0001) %MON dynstat_theta_sd             =   4.3423742938452E+00
(PID.TID 0000.0001) %MON dynstat_theta_del2           =   1.3808351775863E-01
(PID.TID 0000.0001) %MON dynstat_salt_max             =   3.7401420003031E+01
(PID.TID 0000.0001) %MON dynstat_salt_min             =   2.9851365991768E+01
(PID.TID 0000.0001) %MON dynstat_salt_mean            =   3.4715990316853E+01
(PID.TID 0000.0001) %MON dynstat_salt_sd              =   2.9504025162381E-01
(PID.TID 0000.0001) %MON dynstat_salt_del2            =   2.5667458910409E-02
(PID.TID 0000.0001) %MON dynstat_sst_max              =   3.0243263706821E+01
(PID.TID 0000.0001) %MON dynstat_sst_min              =  -1.9450200338767E+00
(PID.TID 0000.0001) %MON dynstat_sst_mean             =   1.8584042964608E+01
(PID.TID 0000.0001) %MON dynstat_sst_sd               =   8.8970715928387E+00
(PID.TID 0000.0001) %MON dynstat_sst_del2             =   2.7460677619247E-01
(PID.TID 0000.0001) %MON dynstat_sss_max              =   3.7401418810532E+01
(PID.TID 0000.0001) %MON dynstat_sss_min              =   2.9851365991768E+01
(PID.TID 0000.0001) %MON dynstat_sss_mean             =   3.4842093545368E+01
(PID.TID 0000.0001) %MON dynstat_sss_sd               =   9.6512349051852E-01
(PID.TID 0000.0001) %MON dynstat_sss_del2             =   8.0817364379216E-02
(PID.TID 0000.0001) %MON extforcing_qnet_max          =   3.9846548970540E+02
(PID.TID 0000.0001) %MON extforcing_qnet_min          =  -1.7690579630534E+02
(PID.TID 0000.0001) %MON extforcing_qnet_mean         =  -1.5408706824800E+01
(PID.TID 0000.0001) %MON extforcing_qnet_sd           =   9.6156770907790E+01
(PID.TID 0000.0001) %MON extforcing_qnet_del2         =   9.0600739083810E+00
(PID.TID 0000.0001) %MON extforcing_qsw_max           =   0.0000000000000E+00
(PID.TID 0000.0001) %MON extforcing_qsw_min           =   0.0000000000000E+00
(PID.TID 0000.0001) %MON extforcing_qsw_mean          =   0.0000000000000E+00
(PID.TID 0000.0001) %MON extforcing_qsw_sd            =   0.0000000000000E+00
(PID.TID 0000.0001) %MON extforcing_qsw_del2          =   0.0000000000000E+00
(PID.TID 0000.0001) %MON extforcing_empmr_max         =   0.0000000000000E+00
(PID.TID 0000.0001) %MON extforcing_empmr_min         =   0.0000000000000E+00
(PID.TID 0000.0001) %MON extforcing_empmr_mean        =   0.0000000000000E+00
(PID.TID 0000.0001) %MON extforcing_empmr_sd          =   0.0000000000000E+00
(PID.TID 0000.0001) %MON extforcing_empmr_del2        =   0.0000000000000E+00
(PID.TID 0000.0001) %MON extforcing_fu_max            =   2.8105383813381E-01
(PID.TID 0000.0001) %MON extforcing_fu_min            =  -1.8751364648342E-01
(PID.TID 0000.0001) %MON extforcing_fu_mean           =   1.6707637953663E-02
(PID.TID 0000.0001) %MON extforcing_fu_sd             =   8.9991600126903E-02
(PID.TID 0000.0001) %MON extforcing_fu_del2           =   7.3455695590128E-03
(PID.TID 0000.0001) %MON extforcing_fv_max            =   1.9141846299171E-01
(PID.TID 0000.0001) %MON extforcing_fv_min            =  -1.6525000333786E-01
(PID.TID 0000.0001) %MON extforcing_fv_mean           =  -6.1072895268024E-03
(PID.TID 0000.0001) %MON extforcing_fv_sd             =   4.5167602989543E-02
(PID.TID 0000.0001) %MON extforcing_fv_del2           =   4.3728917690527E-03
(PID.TID 0000.0001) %MON advcfl_uvel_max              =   2.2451282336671E-02
(PID.TID 0000.0001) %MON advcfl_vvel_max              =   1.2284182746493E-02
(PID.TID 0000.0001) %MON advcfl_wvel_max              =   1.9690695472994E-01
(PID.TID 0000.0001) %MON advcfl_W_hf_max              =   1.8221543670939E-01
(PID.TID 0000.0001) %MON pe_b_mean                    =   2.4972004951093E-04
(PID.TID 0000.0001) %MON ke_max                       =   1.6280436687079E-02
(PID.TID 0000.0001) %MON ke_mean                      =   2.0780750880471E-04
(PID.TID 0000.0001) %MON ke_vol                       =   1.3226782436723E+18
(PID.TID 0000.0001) %MON vort_r_min                   =  -5.2100395692478E-07
(PID.TID 0000.0001) %MON vort_r_max                   =   4.8481738133639E-07
(PID.TID 0000.0001) %MON vort_a_mean                  =  -2.5205769263406E-05
(PID.TID 0000.0001) %MON vort_a_sd                    =   7.3403075704026E-05
(PID.TID 0000.0001) %MON vort_p_mean                  =  -3.1758669393631E-05
(PID.TID 0000.0001) %MON vort_p_sd                    =   1.3126439445544E-04
(PID.TID 0000.0001) %MON surfExpan_theta_mean         =   1.7679808330638E-05
(PID.TID 0000.0001) %MON surfExpan_salt_mean          =  -5.3358758966215E-07
(PID.TID 0000.0001) // =======================================================
(PID.TID 0000.0001) // End MONITOR dynamic field statistics
(PID.TID 0000.0001) // =======================================================
time,SST,SSS,fu,fv,Q,E-P,i0,i1,a,b =   2.4624E+06  2.8780E-01  3.4582E+01 -2.6094E-02 -3.9427E-02  2.5439E+02  0.0000E+00     1     2  4.5000E-01  5.5000E-01
time,fu0,fu1,fu =   2.4624E+06 -3.5633E-02 -1.4435E-02 -2.6094E-02  4.500000000000000E-01  5.500000000000000E-01
 cg2d: Sum(rhs),rhsMax =   2.04077726939644E-12  1.29859656251116E+01
(PID.TID 0000.0001)                    cg2d_init_res =    3.50847689192405E-01
(PID.TID 0000.0001)                       cg2d_iters =    24
(PID.TID 0000.0001)                         cg2d_res =    6.35253257878363E-14
(PID.TID 0000.0001) // =======================================================
(PID.TID 0000.0001) // Begin MONITOR dynamic field statistics
(PID.TID 0000.0001) // =======================================================
(PID.TID 0000.0001) %MON time_tsnumber                =                    58
(PID.TID 0000.0001) %MON time_secondsf                =   2.5056000000000E+06
(PID.TID 0000.0001) %MON dynstat_eta_max              =   1.5360194012918E+00
(PID.TID 0000.0001) %MON dynstat_eta_min              =  -1.2793712389653E+00
(PID.TID 0000.0001) %MON dynstat_eta_mean             =  -1.6513633606267E-15
(PID.TID 0000.0001) %MON dynstat_eta_sd               =   4.4313233565022E-01
(PID.TID 0000.0001) %MON dynstat_eta_del2             =   2.5451925160405E-02
(PID.TID 0000.0001) %MON dynstat_uvel_max             =   1.4338631847815E-01
(PID.TID 0000.0001) %MON dynstat_uvel_min             =  -1.7720741707540E-01
(PID.TID 0000.0001) %MON dynstat_uvel_mean            =  -1.4045750480935E-03
(PID.TID 0000.0001) %MON dynstat_uvel_sd              =   1.5949809459958E-02
(PID.TID 0000.0001) %MON dynstat_uvel_del2            =   3.3759867251649E-03
(PID.TID 0000.0001) %MON dynstat_vvel_max             =   1.2870379122070E-01
(PID.TID 0000.0001) %MON dynstat_vvel_min             =  -1.1740503351666E-01
(PID.TID 0000.0001) %MON dynstat_vvel_mean            =  -9.4256496257446E-04
(PID.TID 0000.0001) %MON dynstat_vvel_sd              =   1.4565646532263E-02
(PID.TID 0000.0001) %MON dynstat_vvel_del2            =   3.3948915333802E-03
(PID.TID 0000.0001) %MON dynstat_wvel_max             =   2.2852442593107E-04
(PID.TID 0000.0001) %MON dynstat_wvel_min             =  -2.7653410526304E-04
(PID.TID 0000.0001) %MON dynstat_wvel_mean            =  -3.9186585899930E-22
(PID.TID 0000.0001) %MON dynstat_wvel_sd              =   2.2544996971498E-05
(PID.TID 0000.0001) %MON dynstat_wvel_del2            =   7.6168958076702E-06
(PID.TID 0000.0001) %MON dynstat_theta_max            =   3.0246954957838E+01
(PID.TID 0000.0001) %MON dynstat_theta_min            =  -2.0238620715503E+00
(PID.TID 0000.0001) %MON dynstat_theta_mean           =   3.5901950243838E+00
(PID.TID 0000.0001) %MON dynstat_theta_sd             =   4.3418379631779E+00
(PID.TID 0000.0001) %MON dynstat_theta_del2           =   1.3794102726456E-01
(PID.TID 0000.0001) %MON dynstat_salt_max             =   3.7400706937639E+01
(PID.TID 0000.0001) %MON dynstat_salt_min             =   2.9852418113895E+01
(PID.TID 0000.0001) %MON dynstat_salt_mean            =   3.4715997125940E+01
(PID.TID 0000.0001) %MON dynstat_salt_sd              =   2.9509259511322E-01
(PID.TID 0000.0001) %MON dynstat_salt_del2            =   2.5648525741627E-02
(PID.TID 0000.0001) %MON dynstat_sst_max              =   3.0246954957838E+01
(PID.TID 0000.0001) %MON dynstat_sst_min              =  -1.9452770956860E+00
(PID.TID 0000.0001) %MON dynstat_sst_mean             =   1.8587505596580E+01
(PID.TID 0000.0001) %MON dynstat_sst_sd               =   8.8933238037859E+00
(PID.TID 0000.0001) %MON dynstat_sst_del2             =   2.7411094223630E-01
(PID.TID 0000.0001) %MON dynstat_sss_max              =   3.7400705794602E+01
(PID.TID 0000.0001) %MON dynstat_sss_min              =   2.9852418113895E+01
(PID.TID 0000.0001) %MON dynstat_sss_mean             =   3.4842472122268E+01
(PID.TID 0000.0001) %MON dynstat_sss_sd               =   9.6477464755427E-01
(PID.TID 0000.0001) %MON dynstat_sss_del2             =   8.0769004122907E-02
(PID.TID 0000.0001) %MON extforcing_qnet_max          =   3.9680594635010E+02
(PID.TID 0000.0001) %MON extforcing_qnet_min          =  -1.7678603668213E+02
(PID.TID 0000.0001) %MON extforcing_qnet_mean         =  -1.5366252241099E+01
(PID.TID 0000.0001) %MON extforcing_qnet_sd           =   9.5644304235738E+01
(PID.TID 0000.0001) %MON extforcing_qnet_del2         =   9.0407124510359E+00
(PID.TID 0000.0001) %MON extforcing_qsw_max           =   0.0000000000000E+00
(PID.TID 0000.0001) %MON extforcing_qsw_min           =   0.0000000000000E+00
(PID.TID 0000.0001) %MON extforcing_qsw_mean          =   0.0000000000000E+00
(PID.TID 0000.0001) %MON extforcing_qsw_sd            =   0.0000000000000E+00
(PID.TID 0000.0001) %MON extforcing_qsw_del2          =   0.0000000000000E+00
(PID.TID 0000.0001) %MON extforcing_empmr_max         =   0.0000000000000E+00
(PID.TID 0000.0001) %MON extforcing_empmr_min         =   0.0000000000000E+00
(PID.TID 0000.0001) %MON extforcing_empmr_mean        =   0.0000000000000E+00
(PID.TID 0000.0001) %MON extforcing_empmr_sd          =   0.0000000000000E+00
(PID.TID 0000.0001) %MON extforcing_empmr_del2        =   0.0000000000000E+00
(PID.TID 0000.0001) %MON extforcing_fu_max            =   2.8174741715193E-01
(PID.TID 0000.0001) %MON extforcing_fu_min            =  -1.8834360837936E-01
(PID.TID 0000.0001) %MON extforcing_fu_mean           =   1.6734788061397E-02
(PID.TID 0000.0001) %MON extforcing_fu_sd             =   9.0009492331361E-02
(PID.TID 0000.0001) %MON extforcing_fu_del2           =   7.3494886358794E-03
(PID.TID 0000.0001) %MON extforcing_fv_max            =   1.9086770266294E-01
(PID.TID 0000.0001) %MON extforcing_fv_min            =  -1.6475435346365E-01
(PID.TID 0000.0001) %MON extforcing_fv_mean           =  -6.1399199801600E-03
(PID.TID 0000.0001) %MON extforcing_fv_sd             =   4.5098621086089E-02
(PID.TID 0000.0001) %MON extforcing_fv_del2           =   4.3724954550736E-03
(PID.TID 0000.0001) %MON advcfl_uvel_max              =   2.3697142733322E-02
(PID.TID 0000.0001) %MON advcfl_vvel_max              =   1.2502541236768E-02
(PID.TID 0000.0001) %MON advcfl_wvel_max              =   1.9846199371500E-01
(PID.TID 0000.0001) %MON advcfl_W_hf_max              =   1.8367551906966E-01
(PID.TID 0000.0001) %MON pe_b_mean                    =   2.5127430707906E-04
(PID.TID 0000.0001) %MON ke_max                       =   1.6243618266359E-02
(PID.TID 0000.0001) %MON ke_mean                      =   2.1211833944965E-04
(PID.TID 0000.0001) %MON ke_vol                       =   1.3226782436723E+18
(PID.TID 0000.0001) %MON vort_r_min                   =  -5.1586710766766E-07
(PID.TID 0000.0001) %MON vort_r_max                   =   4.7789610352942E-07
(PID.TID 0000.0001) %MON vort_a_mean                  =  -2.5205769261240E-05
(PID.TID 0000.0001) %MON vort_a_sd                    =   7.3403099048053E-05
(PID.TID 0000.0001) %MON vort_p_mean                  =  -3.1758669390902E-05
(PID.TID 0000.0001) %MON vort_p_sd                    =   1.3126443494237E-04
(PID.TID 0000.0001) %MON surfExpan_theta_mean         =   1.6328243731112E-05
(PID.TID 0000.0001) %MON surfExpan_salt_mean          =  -5.5877092549934E-07
(PID.TID 0000.0001) // =======================================================
(PID.TID 0000.0001) // End MONITOR dynamic field statistics
(PID.TID 0000.0001) // =======================================================
time,SST,SSS,fu,fv,Q,E-P,i0,i1,a,b =   2.5056E+06  2.6296E-01  3.4578E+01 -2.5740E-02 -3.8767E-02  2.5397E+02  0.0000E+00     1     2  4.6667E-01  5.3333E-01
time,fu0,fu1,fu =   2.5056E+06 -3.5633E-02 -1.4435E-02 -2.5740E-02  4.666666666666667E-01  5.333333333333333E-01
 cg2d: Sum(rhs),rhsMax =   2.19092105568919E-12  1.34416463490861E+01
(PID.TID 0000.0001)                    cg2d_init_res =    3.28168823515267E-01
(PID.TID 0000.0001)                       cg2d_iters =    24
(PID.TID 0000.0001)                         cg2d_res =    5.74274277820816E-14
(PID.TID 0000.0001) // =======================================================
(PID.TID 0000.0001) // Begin MONITOR dynamic field statistics
(PID.TID 0000.0001) // =======================================================
(PID.TID 0000.0001) %MON time_tsnumber                =                    59
(PID.TID 0000.0001) %MON time_secondsf                =   2.5488000000000E+06
(PID.TID 0000.0001) %MON dynstat_eta_max              =   1.5889982828923E+00
(PID.TID 0000.0001) %MON dynstat_eta_min              =  -1.2751788100638E+00
(PID.TID 0000.0001) %MON dynstat_eta_mean             =  -1.9945356839035E-15
(PID.TID 0000.0001) %MON dynstat_eta_sd               =   4.4446030252158E-01
(PID.TID 0000.0001) %MON dynstat_eta_del2             =   2.5657185603342E-02
(PID.TID 0000.0001) %MON dynstat_uvel_max             =   1.4963207979608E-01
(PID.TID 0000.0001) %MON dynstat_uvel_min             =  -1.7490333228366E-01
(PID.TID 0000.0001) %MON dynstat_uvel_mean            =  -1.2603278350844E-03
(PID.TID 0000.0001) %MON dynstat_uvel_sd              =   1.6175844156278E-02
(PID.TID 0000.0001) %MON dynstat_uvel_del2            =   3.3934404969318E-03
(PID.TID 0000.0001) %MON dynstat_vvel_max             =   1.3055793677634E-01
(PID.TID 0000.0001) %MON dynstat_vvel_min             =  -1.1784243025279E-01
(PID.TID 0000.0001) %MON dynstat_vvel_mean            =  -1.1489650712258E-03
(PID.TID 0000.0001) %MON dynstat_vvel_sd              =   1.4625159526381E-02
(PID.TID 0000.0001) %MON dynstat_vvel_del2            =   3.3907566083413E-03
(PID.TID 0000.0001) %MON dynstat_wvel_max             =   2.3054417270157E-04
(PID.TID 0000.0001) %MON dynstat_wvel_min             =  -2.6434200094623E-04
(PID.TID 0000.0001) %MON dynstat_wvel_mean            =  -1.4973223258201E-22
(PID.TID 0000.0001) %MON dynstat_wvel_sd              =   2.2393592797261E-05
(PID.TID 0000.0001) %MON dynstat_wvel_del2            =   7.5033056832832E-06
(PID.TID 0000.0001) %MON dynstat_theta_max            =   3.0234872518572E+01
(PID.TID 0000.0001) %MON dynstat_theta_min            =  -2.0245879281813E+00
(PID.TID 0000.0001) %MON dynstat_theta_mean           =   3.5900595039361E+00
(PID.TID 0000.0001) %MON dynstat_theta_sd             =   4.3413805052776E+00
(PID.TID 0000.0001) %MON dynstat_theta_del2           =   1.3783659625694E-01
(PID.TID 0000.0001) %MON dynstat_salt_max             =   3.7399903546796E+01
(PID.TID 0000.0001) %MON dynstat_salt_min             =   2.9853506409829E+01
(PID.TID 0000.0001) %MON dynstat_salt_mean            =   3.4716003853328E+01
(PID.TID 0000.0001) %MON dynstat_salt_sd              =   2.9514831209429E-01
(PID.TID 0000.0001) %MON dynstat_salt_del2            =   2.5627959078434E-02
(PID.TID 0000.0001) %MON dynstat_sst_max              =   3.0234872518572E+01
(PID.TID 0000.0001) %MON dynstat_sst_min              =  -1.9454202012964E+00
(PID.TID 0000.0001) %MON dynstat_sst_mean             =   1.8590879149462E+01
(PID.TID 0000.0001) %MON dynstat_sst_sd               =   8.8904102991965E+00
(PID.TID 0000.0001) %MON dynstat_sst_del2             =   2.7399133413884E-01
(PID.TID 0000.0001) %MON dynstat_sss_max              =   3.7399902446283E+01
(PID.TID 0000.0001) %MON dynstat_sss_min              =   2.9853506409829E+01
(PID.TID 0000.0001) %MON dynstat_sss_mean             =   3.4842828154979E+01
(PID.TID 0000.0001) %MON dynstat_sss_sd               =   9.6442896004794E-01
(PID.TID 0000.0001) %MON dynstat_sss_del2             =   8.0695792419477E-02
(PID.TID 0000.0001) %MON extforcing_qnet_max          =   3.9514640299479E+02
(PID.TID 0000.0001) %MON extforcing_qnet_min          =  -1.7666627705892E+02
(PID.TID 0000.0001) %MON extforcing_qnet_mean         =  -1.5323797657397E+01
(PID.TID 0000.0001) %MON extforcing_qnet_sd           =   9.5133125046695E+01
(PID.TID 0000.0001) %MON extforcing_qnet_del2         =   9.0218341996745E+00
(PID.TID 0000.0001) %MON extforcing_qsw_max           =   0.0000000000000E+00
(PID.TID 0000.0001) %MON extforcing_qsw_min           =   0.0000000000000E+00
(PID.TID 0000.0001) %MON extforcing_qsw_mean          =   0.0000000000000E+00
(PID.TID 0000.0001) %MON extforcing_qsw_sd            =   0.0000000000000E+00
(PID.TID 0000.0001) %MON extforcing_qsw_del2          =   0.0000000000000E+00
(PID.TID 0000.0001) %MON extforcing_empmr_max         =   0.0000000000000E+00
(PID.TID 0000.0001) %MON extforcing_empmr_min         =   0.0000000000000E+00
(PID.TID 0000.0001) %MON extforcing_empmr_mean        =   0.0000000000000E+00
(PID.TID 0000.0001) %MON extforcing_empmr_sd          =   0.0000000000000E+00
(PID.TID 0000.0001) %MON extforcing_empmr_del2        =   0.0000000000000E+00
(PID.TID 0000.0001) %MON extforcing_fu_max            =   2.8244099617004E-01
(PID.TID 0000.0001) %MON extforcing_fu_min            =  -1.8917357027531E-01
(PID.TID 0000.0001) %MON extforcing_fu_mean           =   1.6761938169132E-02
(PID.TID 0000.0001) %MON extforcing_fu_sd             =   9.0031773326239E-02
(PID.TID 0000.0001) %MON extforcing_fu_del2           =   7.3541020348201E-03
(PID.TID 0000.0001) %MON extforcing_fv_max            =   1.9031694233418E-01
(PID.TID 0000.0001) %MON extforcing_fv_min            =  -1.6425870358944E-01
(PID.TID 0000.0001) %MON extforcing_fv_mean           =  -6.1725504335176E-03
(PID.TID 0000.0001) %MON extforcing_fv_sd             =   4.5033516804219E-02
(PID.TID 0000.0001) %MON extforcing_fv_del2           =   4.3733468713688E-03
(PID.TID 0000.0001) %MON advcfl_uvel_max              =   2.4729366023522E-02
(PID.TID 0000.0001) %MON advcfl_vvel_max              =   1.2682656609039E-02
(PID.TID 0000.0001) %MON advcfl_wvel_max              =   1.9399684598323E-01
(PID.TID 0000.0001) %MON advcfl_W_hf_max              =   1.7956307308877E-01
(PID.TID 0000.0001) %MON pe_b_mean                    =   2.5278258763553E-04
(PID.TID 0000.0001) %MON ke_max                       =   1.6198873683083E-02
(PID.TID 0000.0001) %MON ke_mean                      =   2.1621643867292E-04
(PID.TID 0000.0001) %MON ke_vol                       =   1.3226782436723E+18
(PID.TID 0000.0001) %MON vort_r_min                   =  -5.1038914639811E-07
(PID.TID 0000.0001) %MON vort_r_max                   =   4.6970062351684E-07
(PID.TID 0000.0001) %MON vort_a_mean                  =  -2.5205769254698E-05
(PID.TID 0000.0001) %MON vort_a_sd                    =   7.3403124136020E-05
(PID.TID 0000.0001) %MON vort_p_mean                  =  -3.1758669382659E-05
(PID.TID 0000.0001) %MON vort_p_sd                    =   1.3126447434616E-04
(PID.TID 0000.0001) %MON surfExpan_theta_mean         =   1.5028711598372E-05
(PID.TID 0000.0001) %MON surfExpan_salt_mean          =  -5.3893822159831E-07
(PID.TID 0000.0001) // =======================================================
(PID.TID 0000.0001) // End MONITOR dynamic field statistics
(PID.TID 0000.0001) // =======================================================
time,SST,SSS,fu,fv,Q,E-P,i0,i1,a,b =   2.5488E+06  2.3812E-01  3.4573E+01 -2.5387E-02 -3.8106E-02  2.5355E+02  0.0000E+00     1     2  4.8333E-01  5.1667E-01
time,fu0,fu1,fu =   2.5488E+06 -3.5633E-02 -1.4435E-02 -2.5387E-02  4.833333333333333E-01  5.166666666666666E-01
 cg2d: Sum(rhs),rhsMax =   2.20579110532526E-12  1.37009641669029E+01
(PID.TID 0000.0001)                    cg2d_init_res =    3.10332420338460E-01
(PID.TID 0000.0001)                       cg2d_iters =    24
(PID.TID 0000.0001)                         cg2d_res =    5.18420352769165E-14
(PID.TID 0000.0001) // =======================================================
(PID.TID 0000.0001) // Begin MONITOR dynamic field statistics
(PID.TID 0000.0001) // =======================================================
(PID.TID 0000.0001) %MON time_tsnumber                =                    60
(PID.TID 0000.0001) %MON time_secondsf                =   2.5920000000000E+06
(PID.TID 0000.0001) %MON dynstat_eta_max              =   1.6191166632231E+00
(PID.TID 0000.0001) %MON dynstat_eta_min              =  -1.2705355804515E+00
(PID.TID 0000.0001) %MON dynstat_eta_mean             =  -2.1848182738918E-15
(PID.TID 0000.0001) %MON dynstat_eta_sd               =   4.4571844818093E-01
(PID.TID 0000.0001) %MON dynstat_eta_del2             =   2.5819472090856E-02
(PID.TID 0000.0001) %MON dynstat_uvel_max             =   1.5450058843773E-01
(PID.TID 0000.0001) %MON dynstat_uvel_min             =  -1.7240822724868E-01
(PID.TID 0000.0001) %MON dynstat_uvel_mean            =  -1.1094814767206E-03
(PID.TID 0000.0001) %MON dynstat_uvel_sd              =   1.6407986812241E-02
(PID.TID 0000.0001) %MON dynstat_uvel_del2            =   3.4127404037625E-03
(PID.TID 0000.0001) %MON dynstat_vvel_max             =   1.3201781093474E-01
(PID.TID 0000.0001) %MON dynstat_vvel_min             =  -1.1867845941068E-01
(PID.TID 0000.0001) %MON dynstat_vvel_mean            =  -1.3272647937905E-03
(PID.TID 0000.0001) %MON dynstat_vvel_sd              =   1.4653549718255E-02
(PID.TID 0000.0001) %MON dynstat_vvel_del2            =   3.3890174377565E-03
(PID.TID 0000.0001) %MON dynstat_wvel_max             =   2.3124007980669E-04
(PID.TID 0000.0001) %MON dynstat_wvel_min             =  -2.5095345488460E-04
(PID.TID 0000.0001) %MON dynstat_wvel_mean            =   3.4159959250060E-22
(PID.TID 0000.0001) %MON dynstat_wvel_sd              =   2.2224750310521E-05
(PID.TID 0000.0001) %MON dynstat_wvel_del2            =   7.4062220144060E-06
(PID.TID 0000.0001) %MON dynstat_theta_max            =   3.0207174454297E+01
(PID.TID 0000.0001) %MON dynstat_theta_min            =  -2.0252468673084E+00
(PID.TID 0000.0001) %MON dynstat_theta_mean           =   3.5899380945410E+00
(PID.TID 0000.0001) %MON dynstat_theta_sd             =   4.3409988826488E+00
(PID.TID 0000.0001) %MON dynstat_theta_del2           =   1.3774484678644E-01
(PID.TID 0000.0001) %MON dynstat_salt_max             =   3.7399026390028E+01
(PID.TID 0000.0001) %MON dynstat_salt_min             =   2.9854644872200E+01
(PID.TID 0000.0001) %MON dynstat_salt_mean            =   3.4716010040318E+01
(PID.TID 0000.0001) %MON dynstat_salt_sd              =   2.9520574659010E-01
(PID.TID 0000.0001) %MON dynstat_salt_del2            =   2.5609459196644E-02
(PID.TID 0000.0001) %MON dynstat_sst_max              =   3.0207174454297E+01
(PID.TID 0000.0001) %MON dynstat_sst_min              =  -1.9454342353157E+00
(PID.TID 0000.0001) %MON dynstat_sst_mean             =   1.8594329708714E+01
(PID.TID 0000.0001) %MON dynstat_sst_sd               =   8.8880611982869E+00
(PID.TID 0000.0001) %MON dynstat_sst_del2             =   2.7393174870200E-01
(PID.TID 0000.0001) %MON dynstat_sss_max              =   3.7399025322406E+01
(PID.TID 0000.0001) %MON dynstat_sss_min              =   2.9854644872200E+01
(PID.TID 0000.0001) %MON dynstat_sss_mean             =   3.4843184818155E+01
(PID.TID 0000.0001) %MON dynstat_sss_sd               =   9.6410174745358E-01
(PID.TID 0000.0001) %MON dynstat_sss_del2             =   8.0615434195264E-02
(PID.TID 0000.0001) %MON extforcing_qnet_max          =   3.9348685963949E+02
(PID.TID 0000.0001) %MON extforcing_qnet_min          =  -1.7654651743571E+02
(PID.TID 0000.0001) %MON extforcing_qnet_mean         =  -1.5281343073695E+01
(PID.TID 0000.0001) %MON extforcing_qnet_sd           =   9.4623254206609E+01
(PID.TID 0000.0001) %MON extforcing_qnet_del2         =   9.0032210832558E+00
(PID.TID 0000.0001) %MON extforcing_qsw_max           =   0.0000000000000E+00
(PID.TID 0000.0001) %MON extforcing_qsw_min           =   0.0000000000000E+00
(PID.TID 0000.0001) %MON extforcing_qsw_mean          =   0.0000000000000E+00
(PID.TID 0000.0001) %MON extforcing_qsw_sd            =   0.0000000000000E+00
(PID.TID 0000.0001) %MON extforcing_qsw_del2          =   0.0000000000000E+00
(PID.TID 0000.0001) %MON extforcing_empmr_max         =   0.0000000000000E+00
(PID.TID 0000.0001) %MON extforcing_empmr_min         =   0.0000000000000E+00
(PID.TID 0000.0001) %MON extforcing_empmr_mean        =   0.0000000000000E+00
(PID.TID 0000.0001) %MON extforcing_empmr_sd          =   0.0000000000000E+00
(PID.TID 0000.0001) %MON extforcing_empmr_del2        =   0.0000000000000E+00
(PID.TID 0000.0001) %MON extforcing_fu_max            =   2.8313457518816E-01
(PID.TID 0000.0001) %MON extforcing_fu_min            =  -1.9000353217125E-01
(PID.TID 0000.0001) %MON extforcing_fu_mean           =   1.6789088276866E-02
(PID.TID 0000.0001) %MON extforcing_fu_sd             =   9.0058439854099E-02
(PID.TID 0000.0001) %MON extforcing_fu_del2           =   7.3595005631527E-03
(PID.TID 0000.0001) %MON extforcing_fv_max            =   1.8976618200541E-01
(PID.TID 0000.0001) %MON extforcing_fv_min            =  -1.6376305371523E-01
(PID.TID 0000.0001) %MON extforcing_fv_mean           =  -6.2051808868751E-03
(PID.TID 0000.0001) %MON extforcing_fv_sd             =   4.4972306984282E-02
(PID.TID 0000.0001) %MON extforcing_fv_del2           =   4.3754632929244E-03
(PID.TID 0000.0001) %MON advcfl_uvel_max              =   2.5533973781110E-02
(PID.TID 0000.0001) %MON advcfl_vvel_max              =   1.2824471676744E-02
(PID.TID 0000.0001) %MON advcfl_wvel_max              =   1.8355638853691E-01
(PID.TID 0000.0001) %MON advcfl_W_hf_max              =   1.6991947967254E-01
(PID.TID 0000.0001) %MON pe_b_mean                    =   2.5421573004196E-04
(PID.TID 0000.0001) %MON ke_max                       =   1.6147431783120E-02
(PID.TID 0000.0001) %MON ke_mean                      =   2.2006190362303E-04
(PID.TID 0000.0001) %MON ke_vol                       =   1.3226782436723E+18
(PID.TID 0000.0001) %MON vort_r_min                   =  -5.0480812390947E-07
(PID.TID 0000.0001) %MON vort_r_max                   =   4.6029107379445E-07
(PID.TID 0000.0001) %MON vort_a_mean                  =  -2.5205769244111E-05
(PID.TID 0000.0001) %MON vort_a_sd                    =   7.3403150621601E-05
(PID.TID 0000.0001) %MON vort_p_mean                  =  -3.1758669369319E-05
(PID.TID 0000.0001) %MON vort_p_sd                    =   1.3126451174029E-04
(PID.TID 0000.0001) %MON surfExpan_theta_mean         =   1.3783673434989E-05
(PID.TID 0000.0001) %MON surfExpan_salt_mean          =  -4.8170016761625E-07
(PID.TID 0000.0001) // =======================================================
(PID.TID 0000.0001) // End MONITOR dynamic field statistics
(PID.TID 0000.0001) // =======================================================
time,SST,SSS,fu,fv,Q,E-P,i0,i1,a,b =   2.5920E+06  2.1328E-01  3.4568E+01 -2.5034E-02 -3.7446E-02  2.5313E+02  0.0000E+00     1     2  5.0000E-01  5.0000E-01
time,fu0,fu1,fu =   2.5920E+06 -3.5633E-02 -1.4435E-02 -2.5034E-02  5.000000000000000E-01  5.000000000000000E-01
 cg2d: Sum(rhs),rhsMax =   2.68520622404012E-12  1.37646539938083E+01
(PID.TID 0000.0001)                    cg2d_init_res =    2.97288742886624E-01
(PID.TID 0000.0001)                       cg2d_iters =    24
(PID.TID 0000.0001)                         cg2d_res =    4.78616539493077E-14
(PID.TID 0000.0001) // =======================================================
(PID.TID 0000.0001) // Begin MONITOR dynamic field statistics
(PID.TID 0000.0001) // =======================================================
(PID.TID 0000.0001) %MON time_tsnumber                =                    61
(PID.TID 0000.0001) %MON time_secondsf                =   2.6352000000000E+06
(PID.TID 0000.0001) %MON dynstat_eta_max              =   1.6264571678314E+00
(PID.TID 0000.0001) %MON dynstat_eta_min              =  -1.2657696824402E+00
(PID.TID 0000.0001) %MON dynstat_eta_mean             =  -2.5925596057294E-15
(PID.TID 0000.0001) %MON dynstat_eta_sd               =   4.4687466567612E-01
(PID.TID 0000.0001) %MON dynstat_eta_del2             =   2.5911276445336E-02
(PID.TID 0000.0001) %MON dynstat_uvel_max             =   1.5793754963809E-01
(PID.TID 0000.0001) %MON dynstat_uvel_min             =  -1.6973365194888E-01
(PID.TID 0000.0001) %MON dynstat_uvel_mean            =  -9.5369755749055E-04
(PID.TID 0000.0001) %MON dynstat_uvel_sd              =   1.6640937933127E-02
(PID.TID 0000.0001) %MON dynstat_uvel_del2            =   3.4345329668893E-03
(PID.TID 0000.0001) %MON dynstat_vvel_max             =   1.3308454854471E-01
(PID.TID 0000.0001) %MON dynstat_vvel_min             =  -1.2172381889838E-01
(PID.TID 0000.0001) %MON dynstat_vvel_mean            =  -1.4772113483191E-03
(PID.TID 0000.0001) %MON dynstat_vvel_sd              =   1.4655372253941E-02
(PID.TID 0000.0001) %MON dynstat_vvel_del2            =   3.3901091658194E-03
(PID.TID 0000.0001) %MON dynstat_wvel_max             =   2.3063630330938E-04
(PID.TID 0000.0001) %MON dynstat_wvel_min             =  -2.3658398586115E-04
(PID.TID 0000.0001) %MON dynstat_wvel_mean            =  -2.4810869482838E-22
(PID.TID 0000.0001) %MON dynstat_wvel_sd              =   2.2054311034647E-05
(PID.TID 0000.0001) %MON dynstat_wvel_del2            =   7.3251834670969E-06
(PID.TID 0000.0001) %MON dynstat_theta_max            =   3.0164297213534E+01
(PID.TID 0000.0001) %MON dynstat_theta_min            =  -2.0258504219856E+00
(PID.TID 0000.0001) %MON dynstat_theta_mean           =   3.5898301663651E+00
(PID.TID 0000.0001) %MON dynstat_theta_sd             =   4.3406891183816E+00
(PID.TID 0000.0001) %MON dynstat_theta_del2           =   1.3764778519239E-01
(PID.TID 0000.0001) %MON dynstat_salt_max             =   3.7398094861924E+01
(PID.TID 0000.0001) %MON dynstat_salt_min             =   2.9855845404626E+01
(PID.TID 0000.0001) %MON dynstat_salt_mean            =   3.4716015316285E+01
(PID.TID 0000.0001) %MON dynstat_salt_sd              =   2.9526332899076E-01
(PID.TID 0000.0001) %MON dynstat_salt_del2            =   2.5592693505952E-02
(PID.TID 0000.0001) %MON dynstat_sst_max              =   3.0164297213534E+01
(PID.TID 0000.0001) %MON dynstat_sst_min              =  -1.9452956408195E+00
(PID.TID 0000.0001) %MON dynstat_sst_mean             =   1.8597944790857E+01
(PID.TID 0000.0001) %MON dynstat_sst_sd               =   8.8859555636678E+00
(PID.TID 0000.0001) %MON dynstat_sst_del2             =   2.7366178506971E-01
(PID.TID 0000.0001) %MON dynstat_sss_max              =   3.7398093815347E+01
(PID.TID 0000.0001) %MON dynstat_sss_min              =   2.9855845404626E+01
(PID.TID 0000.0001) %MON dynstat_sss_mean             =   3.4843529340149E+01
(PID.TID 0000.0001) %MON dynstat_sss_sd               =   9.6375004111568E-01
(PID.TID 0000.0001) %MON dynstat_sss_del2             =   8.0529354386216E-02
(PID.TID 0000.0001) %MON extforcing_qnet_max          =   3.9182731628418E+02
(PID.TID 0000.0001) %MON extforcing_qnet_min          =  -1.7642675781250E+02
(PID.TID 0000.0001) %MON extforcing_qnet_mean         =  -1.5238888489994E+01
(PID.TID 0000.0001) %MON extforcing_qnet_sd           =   9.4114712979606E+01
(PID.TID 0000.0001) %MON extforcing_qnet_del2         =   8.9849130984227E+00
(PID.TID 0000.0001) %MON extforcing_qsw_max           =   0.0000000000000E+00
(PID.TID 0000.0001) %MON extforcing_qsw_min           =   0.0000000000000E+00
(PID.TID 0000.0001) %MON extforcing_qsw_mean          =   0.0000000000000E+00
(PID.TID 0000.0001) %MON extforcing_qsw_sd            =   0.0000000000000E+00
(PID.TID 0000.0001) %MON extforcing_qsw_del2          =   0.0000000000000E+00
(PID.TID 0000.0001) %MON extforcing_empmr_max         =   0.0000000000000E+00
(PID.TID 0000.0001) %MON extforcing_empmr_min         =   0.0000000000000E+00
(PID.TID 0000.0001) %MON extforcing_empmr_mean        =   0.0000000000000E+00
(PID.TID 0000.0001) %MON extforcing_empmr_sd          =   0.0000000000000E+00
(PID.TID 0000.0001) %MON extforcing_empmr_del2        =   0.0000000000000E+00
(PID.TID 0000.0001) %MON extforcing_fu_max            =   2.8382815420628E-01
(PID.TID 0000.0001) %MON extforcing_fu_min            =  -1.9083349406719E-01
(PID.TID 0000.0001) %MON extforcing_fu_mean           =   1.6816238384601E-02
(PID.TID 0000.0001) %MON extforcing_fu_sd             =   9.0089488020582E-02
(PID.TID 0000.0001) %MON extforcing_fu_del2           =   7.3653486710626E-03
(PID.TID 0000.0001) %MON extforcing_fv_max            =   1.8921542167664E-01
(PID.TID 0000.0001) %MON extforcing_fv_min            =  -1.6326740384102E-01
(PID.TID 0000.0001) %MON extforcing_fv_mean           =  -6.2378113402327E-03
(PID.TID 0000.0001) %MON extforcing_fv_sd             =   4.4915007548310E-02
(PID.TID 0000.0001) %MON extforcing_fv_del2           =   4.3790313685913E-03
(PID.TID 0000.0001) %MON advcfl_uvel_max              =   2.6101992829220E-02
(PID.TID 0000.0001) %MON advcfl_vvel_max              =   1.2928096681345E-02
(PID.TID 0000.0001) %MON advcfl_wvel_max              =   1.6740434124234E-01
(PID.TID 0000.0001) %MON advcfl_W_hf_max              =   1.5498868168037E-01
(PID.TID 0000.0001) %MON pe_b_mean                    =   2.5553633909092E-04
(PID.TID 0000.0001) %MON ke_max                       =   1.6090323099634E-02
(PID.TID 0000.0001) %MON ke_mean                      =   2.2362632782347E-04
(PID.TID 0000.0001) %MON ke_vol                       =   1.3226782436723E+18
(PID.TID 0000.0001) %MON vort_r_min                   =  -4.9935949233910E-07
(PID.TID 0000.0001) %MON vort_r_max                   =   4.4973426228236E-07
(PID.TID 0000.0001) %MON vort_a_mean                  =  -2.5205769229771E-05
(PID.TID 0000.0001) %MON vort_a_sd                    =   7.3403178177273E-05
(PID.TID 0000.0001) %MON vort_p_mean                  =  -3.1758669351252E-05
(PID.TID 0000.0001) %MON vort_p_sd                    =   1.3126454652232E-04
(PID.TID 0000.0001) %MON surfExpan_theta_mean         =   1.2592043244883E-05
(PID.TID 0000.0001) %MON surfExpan_salt_mean          =  -3.9562265615652E-07
(PID.TID 0000.0001) // =======================================================
(PID.TID 0000.0001) // End MONITOR dynamic field statistics
(PID.TID 0000.0001) // =======================================================
time,SST,SSS,fu,fv,Q,E-P,i0,i1,a,b =   2.6352E+06  1.8845E-01  3.4563E+01 -2.4681E-02 -3.6786E-02  2.5270E+02  0.0000E+00     1     2  5.1667E-01  4.8333E-01
time,fu0,fu1,fu =   2.6352E+06 -3.5633E-02 -1.4435E-02 -2.4681E-02  5.166666666666667E-01  4.833333333333333E-01
 cg2d: Sum(rhs),rhsMax =   2.82817519403622E-12  1.36394324617495E+01
(PID.TID 0000.0001)                    cg2d_init_res =    2.89585011828218E-01
(PID.TID 0000.0001)                       cg2d_iters =    24
(PID.TID 0000.0001)                         cg2d_res =    4.53534840184598E-14
(PID.TID 0000.0001) // =======================================================
(PID.TID 0000.0001) // Begin MONITOR dynamic field statistics
(PID.TID 0000.0001) // =======================================================
(PID.TID 0000.0001) %MON time_tsnumber                =                    62
(PID.TID 0000.0001) %MON time_secondsf                =   2.6784000000000E+06
(PID.TID 0000.0001) %MON dynstat_eta_max              =   1.6117968442533E+00
(PID.TID 0000.0001) %MON dynstat_eta_min              =  -1.2770290228663E+00
(PID.TID 0000.0001) %MON dynstat_eta_mean             =  -2.3688604666031E-15
(PID.TID 0000.0001) %MON dynstat_eta_sd               =   4.4789581476529E-01
(PID.TID 0000.0001) %MON dynstat_eta_del2             =   2.5948050997792E-02
(PID.TID 0000.0001) %MON dynstat_uvel_max             =   1.6142504452148E-01
(PID.TID 0000.0001) %MON dynstat_uvel_min             =  -1.6689064126198E-01
(PID.TID 0000.0001) %MON dynstat_uvel_mean            =  -7.9448859900609E-04
(PID.TID 0000.0001) %MON dynstat_uvel_sd              =   1.6868353015044E-02
(PID.TID 0000.0001) %MON dynstat_uvel_del2            =   3.4585201728311E-03
(PID.TID 0000.0001) %MON dynstat_vvel_max             =   1.3376062662068E-01
(PID.TID 0000.0001) %MON dynstat_vvel_min             =  -1.2488538906661E-01
(PID.TID 0000.0001) %MON dynstat_vvel_mean            =  -1.5990564027348E-03
(PID.TID 0000.0001) %MON dynstat_vvel_sd              =   1.4636879329139E-02
(PID.TID 0000.0001) %MON dynstat_vvel_del2            =   3.3946256455632E-03
(PID.TID 0000.0001) %MON dynstat_wvel_max             =   2.2878645246231E-04
(PID.TID 0000.0001) %MON dynstat_wvel_min             =  -2.2145346320262E-04
(PID.TID 0000.0001) %MON dynstat_wvel_mean            =   1.2996633928735E-22
(PID.TID 0000.0001) %MON dynstat_wvel_sd              =   2.1897269360482E-05
(PID.TID 0000.0001) %MON dynstat_wvel_del2            =   7.2730628499898E-06
(PID.TID 0000.0001) %MON dynstat_theta_max            =   3.0106970291479E+01
(PID.TID 0000.0001) %MON dynstat_theta_min            =  -2.0264101423379E+00
(PID.TID 0000.0001) %MON dynstat_theta_mean           =   3.5897350827183E+00
(PID.TID 0000.0001) %MON dynstat_theta_sd             =   4.3404469049086E+00
(PID.TID 0000.0001) %MON dynstat_theta_del2           =   1.3753758210179E-01
(PID.TID 0000.0001) %MON dynstat_salt_max             =   3.7398197950055E+01
(PID.TID 0000.0001) %MON dynstat_salt_min             =   2.9857117166780E+01
(PID.TID 0000.0001) %MON dynstat_salt_mean            =   3.4716019414848E+01
(PID.TID 0000.0001) %MON dynstat_salt_sd              =   2.9531953959376E-01
(PID.TID 0000.0001) %MON dynstat_salt_del2            =   2.5578451369657E-02
(PID.TID 0000.0001) %MON dynstat_sst_max              =   3.0106970291479E+01
(PID.TID 0000.0001) %MON dynstat_sst_min              =  -1.9450196454673E+00
(PID.TID 0000.0001) %MON dynstat_sst_mean             =   1.8601362448053E+01
(PID.TID 0000.0001) %MON dynstat_sst_sd               =   8.8847419125480E+00
(PID.TID 0000.0001) %MON dynstat_sst_del2             =   2.7332706423903E-01
(PID.TID 0000.0001) %MON dynstat_sss_max              =   3.7395634258460E+01
(PID.TID 0000.0001) %MON dynstat_sss_min              =   2.9857117166780E+01
(PID.TID 0000.0001) %MON dynstat_sss_mean             =   3.4843814172546E+01
(PID.TID 0000.0001) %MON dynstat_sss_sd               =   9.6342838817708E-01
(PID.TID 0000.0001) %MON dynstat_sss_del2             =   8.0463339137821E-02
(PID.TID 0000.0001) %MON extforcing_qnet_max          =   3.9016777292887E+02
(PID.TID 0000.0001) %MON extforcing_qnet_min          =  -1.7630699818929E+02
(PID.TID 0000.0001) %MON extforcing_qnet_mean         =  -1.5196433906292E+01
(PID.TID 0000.0001) %MON extforcing_qnet_sd           =   9.3607523035840E+01
(PID.TID 0000.0001) %MON extforcing_qnet_del2         =   8.9667775715008E+00
(PID.TID 0000.0001) %MON extforcing_qsw_max           =   0.0000000000000E+00
(PID.TID 0000.0001) %MON extforcing_qsw_min           =   0.0000000000000E+00
(PID.TID 0000.0001) %MON extforcing_qsw_mean          =   0.0000000000000E+00
(PID.TID 0000.0001) %MON extforcing_qsw_sd            =   0.0000000000000E+00
(PID.TID 0000.0001) %MON extforcing_qsw_del2          =   0.0000000000000E+00
(PID.TID 0000.0001) %MON extforcing_empmr_max         =   0.0000000000000E+00
(PID.TID 0000.0001) %MON extforcing_empmr_min         =   0.0000000000000E+00
(PID.TID 0000.0001) %MON extforcing_empmr_mean        =   0.0000000000000E+00
(PID.TID 0000.0001) %MON extforcing_empmr_sd          =   0.0000000000000E+00
(PID.TID 0000.0001) %MON extforcing_empmr_del2        =   0.0000000000000E+00
(PID.TID 0000.0001) %MON extforcing_fu_max            =   2.8452173322439E-01
(PID.TID 0000.0001) %MON extforcing_fu_min            =  -1.9166345596313E-01
(PID.TID 0000.0001) %MON extforcing_fu_mean           =   1.6843388492335E-02
(PID.TID 0000.0001) %MON extforcing_fu_sd             =   9.0124913297245E-02
(PID.TID 0000.0001) %MON extforcing_fu_del2           =   7.3718315611220E-03
(PID.TID 0000.0001) %MON extforcing_fv_max            =   1.8866466134787E-01
(PID.TID 0000.0001) %MON extforcing_fv_min            =  -1.6277175396681E-01
(PID.TID 0000.0001) %MON extforcing_fv_mean           =  -6.2704417935904E-03
(PID.TID 0000.0001) %MON extforcing_fv_sd             =   4.4861633479895E-02
(PID.TID 0000.0001) %MON extforcing_fv_del2           =   4.3846108679112E-03
(PID.TID 0000.0001) %MON advcfl_uvel_max              =   2.6678363468417E-02
(PID.TID 0000.0001) %MON advcfl_vvel_max              =   1.2993772244932E-02
(PID.TID 0000.0001) %MON advcfl_wvel_max              =   1.4602050110481E-01
(PID.TID 0000.0001) %MON advcfl_W_hf_max              =   1.3521461489678E-01
(PID.TID 0000.0001) %MON pe_b_mean                    =   2.5670552077226E-04
(PID.TID 0000.0001) %MON ke_max                       =   1.6028289055081E-02
(PID.TID 0000.0001) %MON ke_mean                      =   2.2688708051916E-04
(PID.TID 0000.0001) %MON ke_vol                       =   1.3226782436723E+18
(PID.TID 0000.0001) %MON vort_r_min                   =  -4.9426856415189E-07
(PID.TID 0000.0001) %MON vort_r_max                   =   4.3810189841520E-07
(PID.TID 0000.0001) %MON vort_a_mean                  =  -2.5205769212361E-05
(PID.TID 0000.0001) %MON vort_a_sd                    =   7.3403206496130E-05
(PID.TID 0000.0001) %MON vort_p_mean                  =  -3.1758669329315E-05
(PID.TID 0000.0001) %MON vort_p_sd                    =   1.3126457829050E-04
(PID.TID 0000.0001) %MON surfExpan_theta_mean         =   1.1450838355711E-05
(PID.TID 0000.0001) %MON surfExpan_salt_mean          =  -2.8949940634902E-07
(PID.TID 0000.0001) // =======================================================
(PID.TID 0000.0001) // End MONITOR dynamic field statistics
(PID.TID 0000.0001) // =======================================================
time,SST,SSS,fu,fv,Q,E-P,i0,i1,a,b =   2.6784E+06  1.6361E-01  3.4558E+01 -2.4327E-02 -3.6125E-02  2.5228E+02  0.0000E+00     1     2  5.3333E-01  4.6667E-01
time,fu0,fu1,fu =   2.6784E+06 -3.5633E-02 -1.4435E-02 -2.4327E-02  5.333333333333333E-01  4.666666666666667E-01
 cg2d: Sum(rhs),rhsMax =   3.15040354914586E-12  1.33374540349376E+01
(PID.TID 0000.0001)                    cg2d_init_res =    2.88197545185592E-01
(PID.TID 0000.0001)                       cg2d_iters =    24
(PID.TID 0000.0001)                         cg2d_res =    3.77482592641811E-14
(PID.TID 0000.0001) // =======================================================
(PID.TID 0000.0001) // Begin MONITOR dynamic field statistics
(PID.TID 0000.0001) // =======================================================
(PID.TID 0000.0001) %MON time_tsnumber                =                    63
(PID.TID 0000.0001) %MON time_secondsf                =   2.7216000000000E+06
(PID.TID 0000.0001) %MON dynstat_eta_max              =   1.5765446436559E+00
(PID.TID 0000.0001) %MON dynstat_eta_min              =  -1.2916920667739E+00
(PID.TID 0000.0001) %MON dynstat_eta_mean             =  -2.5512894953924E-15
(PID.TID 0000.0001) %MON dynstat_eta_sd               =   4.4875381490463E-01
(PID.TID 0000.0001) %MON dynstat_eta_del2             =   2.5931885234843E-02
(PID.TID 0000.0001) %MON dynstat_uvel_max             =   1.6549730800822E-01
(PID.TID 0000.0001) %MON dynstat_uvel_min             =  -1.6388945082934E-01
(PID.TID 0000.0001) %MON dynstat_uvel_mean            =  -6.3320578421626E-04
(PID.TID 0000.0001) %MON dynstat_uvel_sd              =   1.7083241445382E-02
(PID.TID 0000.0001) %MON dynstat_uvel_del2            =   3.4853946986247E-03
(PID.TID 0000.0001) %MON dynstat_vvel_max             =   1.3404955523638E-01
(PID.TID 0000.0001) %MON dynstat_vvel_min             =  -1.2736688553659E-01
(PID.TID 0000.0001) %MON dynstat_vvel_mean            =  -1.6935119038801E-03
(PID.TID 0000.0001) %MON dynstat_vvel_sd              =   1.4605231127596E-02
(PID.TID 0000.0001) %MON dynstat_vvel_del2            =   3.4034981442023E-03
(PID.TID 0000.0001) %MON dynstat_wvel_max             =   2.2576955403739E-04
(PID.TID 0000.0001) %MON dynstat_wvel_min             =  -2.1508074895679E-04
(PID.TID 0000.0001) %MON dynstat_wvel_mean            =   1.9588132142316E-22
(PID.TID 0000.0001) %MON dynstat_wvel_sd              =   2.1765731438085E-05
(PID.TID 0000.0001) %MON dynstat_wvel_del2            =   7.2437636405931E-06
(PID.TID 0000.0001) %MON dynstat_theta_max            =   3.0036229276401E+01
(PID.TID 0000.0001) %MON dynstat_theta_min            =  -2.0269364695033E+00
(PID.TID 0000.0001) %MON dynstat_theta_mean           =   3.5896523311248E+00
(PID.TID 0000.0001) %MON dynstat_theta_sd             =   4.3402669742211E+00
(PID.TID 0000.0001) %MON dynstat_theta_del2           =   1.3744247499466E-01
(PID.TID 0000.0001) %MON dynstat_salt_max             =   3.7398290803303E+01
(PID.TID 0000.0001) %MON dynstat_salt_min             =   2.9858465967604E+01
(PID.TID 0000.0001) %MON dynstat_salt_mean            =   3.4716022172749E+01
(PID.TID 0000.0001) %MON dynstat_salt_sd              =   2.9537279326229E-01
(PID.TID 0000.0001) %MON dynstat_salt_del2            =   2.5570811432604E-02
(PID.TID 0000.0001) %MON dynstat_sst_max              =   3.0036229276401E+01
(PID.TID 0000.0001) %MON dynstat_sst_min              =  -1.9446044615501E+00
(PID.TID 0000.0001) %MON dynstat_sst_mean             =   1.8604696794081E+01
(PID.TID 0000.0001) %MON dynstat_sst_sd               =   8.8839844103500E+00
(PID.TID 0000.0001) %MON dynstat_sst_del2             =   2.7318804729628E-01
(PID.TID 0000.0001) %MON dynstat_sss_max              =   3.7393163250187E+01
(PID.TID 0000.0001) %MON dynstat_sss_min              =   2.9858465967604E+01
(PID.TID 0000.0001) %MON dynstat_sss_mean             =   3.4844032197316E+01
(PID.TID 0000.0001) %MON dynstat_sss_sd               =   9.6305697223482E-01
(PID.TID 0000.0001) %MON dynstat_sss_del2             =   8.0434162671924E-02
(PID.TID 0000.0001) %MON extforcing_qnet_max          =   3.8850822957357E+02
(PID.TID 0000.0001) %MON extforcing_qnet_min          =  -1.7618723856608E+02
(PID.TID 0000.0001) %MON extforcing_qnet_mean         =  -1.5153979322590E+01
(PID.TID 0000.0001) %MON extforcing_qnet_sd           =   9.3101706459460E+01
(PID.TID 0000.0001) %MON extforcing_qnet_del2         =   8.9491856150733E+00
(PID.TID 0000.0001) %MON extforcing_qsw_max           =   0.0000000000000E+00
(PID.TID 0000.0001) %MON extforcing_qsw_min           =   0.0000000000000E+00
(PID.TID 0000.0001) %MON extforcing_qsw_mean          =   0.0000000000000E+00
(PID.TID 0000.0001) %MON extforcing_qsw_sd            =   0.0000000000000E+00
(PID.TID 0000.0001) %MON extforcing_qsw_del2          =   0.0000000000000E+00
(PID.TID 0000.0001) %MON extforcing_empmr_max         =   0.0000000000000E+00
(PID.TID 0000.0001) %MON extforcing_empmr_min         =   0.0000000000000E+00
(PID.TID 0000.0001) %MON extforcing_empmr_mean        =   0.0000000000000E+00
(PID.TID 0000.0001) %MON extforcing_empmr_sd          =   0.0000000000000E+00
(PID.TID 0000.0001) %MON extforcing_empmr_del2        =   0.0000000000000E+00
(PID.TID 0000.0001) %MON extforcing_fu_max            =   2.8521531224251E-01
(PID.TID 0000.0001) %MON extforcing_fu_min            =  -1.9249341785908E-01
(PID.TID 0000.0001) %MON extforcing_fu_mean           =   1.6870538600070E-02
(PID.TID 0000.0001) %MON extforcing_fu_sd             =   9.0164710524852E-02
(PID.TID 0000.0001) %MON extforcing_fu_del2           =   7.3801127759637E-03
(PID.TID 0000.0001) %MON extforcing_fv_max            =   1.8811390101910E-01
(PID.TID 0000.0001) %MON extforcing_fv_min            =  -1.6227610409260E-01
(PID.TID 0000.0001) %MON extforcing_fv_mean           =  -6.3030722469479E-03
(PID.TID 0000.0001) %MON extforcing_fv_sd             =   4.4812198805099E-02
(PID.TID 0000.0001) %MON extforcing_fv_del2           =   4.3915655755969E-03
(PID.TID 0000.0001) %MON advcfl_uvel_max              =   2.7351377533616E-02
(PID.TID 0000.0001) %MON advcfl_vvel_max              =   1.3021839343018E-02
(PID.TID 0000.0001) %MON advcfl_wvel_max              =   1.2008740471362E-01
(PID.TID 0000.0001) %MON advcfl_W_hf_max              =   1.1122884860441E-01
(PID.TID 0000.0001) %MON pe_b_mean                    =   2.5768996548770E-04
(PID.TID 0000.0001) %MON ke_max                       =   1.5961707796762E-02
(PID.TID 0000.0001) %MON ke_mean                      =   2.2982120569233E-04
(PID.TID 0000.0001) %MON ke_vol                       =   1.3226782436723E+18
(PID.TID 0000.0001) %MON vort_r_min                   =  -4.8974100591357E-07
(PID.TID 0000.0001) %MON vort_r_max                   =   4.2546906576858E-07
(PID.TID 0000.0001) %MON vort_a_mean                  =  -2.5205769192595E-05
(PID.TID 0000.0001) %MON vort_a_sd                    =   7.3403235300543E-05
(PID.TID 0000.0001) %MON vort_p_mean                  =  -3.1758669304411E-05
(PID.TID 0000.0001) %MON vort_p_sd                    =   1.3126460688577E-04
(PID.TID 0000.0001) %MON surfExpan_theta_mean         =   1.0358904706452E-05
(PID.TID 0000.0001) %MON surfExpan_salt_mean          =  -1.7148572610141E-07
(PID.TID 0000.0001) // =======================================================
(PID.TID 0000.0001) // End MONITOR dynamic field statistics
(PID.TID 0000.0001) // =======================================================
time,SST,SSS,fu,fv,Q,E-P,i0,i1,a,b =   2.7216E+06  1.3877E-01  3.4553E+01 -2.3974E-02 -3.5465E-02  2.5186E+02  0.0000E+00     1     2  5.5000E-01  4.5000E-01
time,fu0,fu1,fu =   2.7216E+06 -3.5633E-02 -1.4435E-02 -2.3974E-02  5.500000000000000E-01  4.500000000000000E-01
 cg2d: Sum(rhs),rhsMax =   3.31672189712862E-12  1.28756214604387E+01
(PID.TID 0000.0001)                    cg2d_init_res =    2.94302665573303E-01
(PID.TID 0000.0001)                       cg2d_iters =    23
(PID.TID 0000.0001)                         cg2d_res =    8.57980281614461E-14
(PID.TID 0000.0001) // =======================================================
(PID.TID 0000.0001) // Begin MONITOR dynamic field statistics
(PID.TID 0000.0001) // =======================================================
(PID.TID 0000.0001) %MON time_tsnumber                =                    64
(PID.TID 0000.0001) %MON time_secondsf                =   2.7648000000000E+06
(PID.TID 0000.0001) %MON dynstat_eta_max              =   1.5226619109456E+00
(PID.TID 0000.0001) %MON dynstat_eta_min              =  -1.3043834114753E+00
(PID.TID 0000.0001) %MON dynstat_eta_mean             =  -2.6363980428368E-15
(PID.TID 0000.0001) %MON dynstat_eta_sd               =   4.4943097366323E-01
(PID.TID 0000.0001) %MON dynstat_eta_del2             =   2.5836182136631E-02
(PID.TID 0000.0001) %MON dynstat_uvel_max             =   1.6805060244890E-01
(PID.TID 0000.0001) %MON dynstat_uvel_min             =  -1.6073938360909E-01
(PID.TID 0000.0001) %MON dynstat_uvel_mean            =  -4.7104360907125E-04
(PID.TID 0000.0001) %MON dynstat_uvel_sd              =   1.7278413186194E-02
(PID.TID 0000.0001) %MON dynstat_uvel_del2            =   3.5128024284200E-03
(PID.TID 0000.0001) %MON dynstat_vvel_max             =   1.3395565596982E-01
(PID.TID 0000.0001) %MON dynstat_vvel_min             =  -1.2916012165272E-01
(PID.TID 0000.0001) %MON dynstat_vvel_mean            =  -1.7617120336234E-03
(PID.TID 0000.0001) %MON dynstat_vvel_sd              =   1.4567648503299E-02
(PID.TID 0000.0001) %MON dynstat_vvel_del2            =   3.4172929180848E-03
(PID.TID 0000.0001) %MON dynstat_wvel_max             =   2.2168552562236E-04
(PID.TID 0000.0001) %MON dynstat_wvel_min             =  -2.1530143468062E-04
(PID.TID 0000.0001) %MON dynstat_wvel_mean            =  -5.5453021541444E-22
(PID.TID 0000.0001) %MON dynstat_wvel_sd              =   2.1667175326038E-05
(PID.TID 0000.0001) %MON dynstat_wvel_del2            =   7.2263737968177E-06
(PID.TID 0000.0001) %MON dynstat_theta_max            =   2.9953423704229E+01
(PID.TID 0000.0001) %MON dynstat_theta_min            =  -2.0274379478484E+00
(PID.TID 0000.0001) %MON dynstat_theta_mean           =   3.5895813651993E+00
(PID.TID 0000.0001) %MON dynstat_theta_sd             =   4.3401440255967E+00
(PID.TID 0000.0001) %MON dynstat_theta_del2           =   1.3735188222130E-01
(PID.TID 0000.0001) %MON dynstat_salt_max             =   3.7398412702282E+01
(PID.TID 0000.0001) %MON dynstat_salt_min             =   2.9859893764217E+01
(PID.TID 0000.0001) %MON dynstat_salt_mean            =   3.4716023513706E+01
(PID.TID 0000.0001) %MON dynstat_salt_sd              =   2.9542210580804E-01
(PID.TID 0000.0001) %MON dynstat_salt_del2            =   2.5561364163681E-02
(PID.TID 0000.0001) %MON dynstat_sst_max              =   2.9953423704229E+01
(PID.TID 0000.0001) %MON dynstat_sst_min              =  -1.9440492798375E+00
(PID.TID 0000.0001) %MON dynstat_sst_mean             =   1.8608210162023E+01
(PID.TID 0000.0001) %MON dynstat_sst_sd               =   8.8836008800744E+00
(PID.TID 0000.0001) %MON dynstat_sst_del2             =   2.7291402781754E-01
(PID.TID 0000.0001) %MON dynstat_sss_max              =   3.7390678423454E+01
(PID.TID 0000.0001) %MON dynstat_sss_min              =   2.9859893764217E+01
(PID.TID 0000.0001) %MON dynstat_sss_mean             =   3.4844268924685E+01
(PID.TID 0000.0001) %MON dynstat_sss_sd               =   9.6274990208701E-01
(PID.TID 0000.0001) %MON dynstat_sss_del2             =   8.0386111302322E-02
(PID.TID 0000.0001) %MON extforcing_qnet_max          =   3.8684868621826E+02
(PID.TID 0000.0001) %MON extforcing_qnet_min          =  -1.7606747894287E+02
(PID.TID 0000.0001) %MON extforcing_qnet_mean         =  -1.5111524738889E+01
(PID.TID 0000.0001) %MON extforcing_qnet_sd           =   9.2597285756702E+01
(PID.TID 0000.0001) %MON extforcing_qnet_del2         =   8.9319626112778E+00
(PID.TID 0000.0001) %MON extforcing_qsw_max           =   0.0000000000000E+00
(PID.TID 0000.0001) %MON extforcing_qsw_min           =   0.0000000000000E+00
(PID.TID 0000.0001) %MON extforcing_qsw_mean          =   0.0000000000000E+00
(PID.TID 0000.0001) %MON extforcing_qsw_sd            =   0.0000000000000E+00
(PID.TID 0000.0001) %MON extforcing_qsw_del2          =   0.0000000000000E+00
(PID.TID 0000.0001) %MON extforcing_empmr_max         =   0.0000000000000E+00
(PID.TID 0000.0001) %MON extforcing_empmr_min         =   0.0000000000000E+00
(PID.TID 0000.0001) %MON extforcing_empmr_mean        =   0.0000000000000E+00
(PID.TID 0000.0001) %MON extforcing_empmr_sd          =   0.0000000000000E+00
(PID.TID 0000.0001) %MON extforcing_empmr_del2        =   0.0000000000000E+00
(PID.TID 0000.0001) %MON extforcing_fu_max            =   2.8590889126062E-01
(PID.TID 0000.0001) %MON extforcing_fu_min            =  -1.9332337975502E-01
(PID.TID 0000.0001) %MON extforcing_fu_mean           =   1.6897688707804E-02
(PID.TID 0000.0001) %MON extforcing_fu_sd             =   9.0208873917115E-02
(PID.TID 0000.0001) %MON extforcing_fu_del2           =   7.3902632506065E-03
(PID.TID 0000.0001) %MON extforcing_fv_max            =   1.8756314069033E-01
(PID.TID 0000.0001) %MON extforcing_fv_min            =  -1.6178045421839E-01
(PID.TID 0000.0001) %MON extforcing_fv_mean           =  -6.3357027003055E-03
(PID.TID 0000.0001) %MON extforcing_fv_sd             =   4.4766716574420E-02
(PID.TID 0000.0001) %MON extforcing_fv_del2           =   4.4002830492519E-03
(PID.TID 0000.0001) %MON advcfl_uvel_max              =   2.7773354912233E-02
(PID.TID 0000.0001) %MON advcfl_vvel_max              =   1.3012717782253E-02
(PID.TID 0000.0001) %MON advcfl_wvel_max              =   1.0374656805254E-01
(PID.TID 0000.0001) %MON advcfl_W_hf_max              =   1.0249531312082E-01
(PID.TID 0000.0001) %MON pe_b_mean                    =   2.5846824822198E-04
(PID.TID 0000.0001) %MON ke_max                       =   1.5890543290257E-02
(PID.TID 0000.0001) %MON ke_mean                      =   2.3240025559271E-04
(PID.TID 0000.0001) %MON ke_vol                       =   1.3226782436723E+18
(PID.TID 0000.0001) %MON vort_r_min                   =  -4.8595282394348E-07
(PID.TID 0000.0001) %MON vort_r_max                   =   4.1444086153136E-07
(PID.TID 0000.0001) %MON vort_a_mean                  =  -2.5205769171261E-05
(PID.TID 0000.0001) %MON vort_a_sd                    =   7.3403264343610E-05
(PID.TID 0000.0001) %MON vort_p_mean                  =  -3.1758669277530E-05
(PID.TID 0000.0001) %MON vort_p_sd                    =   1.3126463229779E-04
(PID.TID 0000.0001) %MON surfExpan_theta_mean         =   9.3118400761705E-06
(PID.TID 0000.0001) %MON surfExpan_salt_mean          =  -4.9702375282285E-08
(PID.TID 0000.0001) // =======================================================
(PID.TID 0000.0001) // End MONITOR dynamic field statistics
(PID.TID 0000.0001) // =======================================================
time,SST,SSS,fu,fv,Q,E-P,i0,i1,a,b =   2.7648E+06  1.1393E-01  3.4548E+01 -2.3621E-02 -3.4805E-02  2.5144E+02  0.0000E+00     1     2  5.6667E-01  4.3333E-01
time,fu0,fu1,fu =   2.7648E+06 -3.5633E-02 -1.4435E-02 -2.3621E-02  5.666666666666667E-01  4.333333333333333E-01
 cg2d: Sum(rhs),rhsMax =   3.42702255462513E-12  1.22747851031081E+01
(PID.TID 0000.0001)                    cg2d_init_res =    3.08998709318320E-01
(PID.TID 0000.0001)                       cg2d_iters =    24
(PID.TID 0000.0001)                         cg2d_res =    4.26989724161151E-14
(PID.TID 0000.0001) // =======================================================
(PID.TID 0000.0001) // Begin MONITOR dynamic field statistics
(PID.TID 0000.0001) // =======================================================
(PID.TID 0000.0001) %MON time_tsnumber                =                    65
(PID.TID 0000.0001) %MON time_secondsf                =   2.8080000000000E+06
(PID.TID 0000.0001) %MON dynstat_eta_max              =   1.4525698693973E+00
(PID.TID 0000.0001) %MON dynstat_eta_min              =  -1.3172094777909E+00
(PID.TID 0000.0001) %MON dynstat_eta_mean             =  -2.4909232033652E-15
(PID.TID 0000.0001) %MON dynstat_eta_sd               =   4.4992364712597E-01
(PID.TID 0000.0001) %MON dynstat_eta_del2             =   2.5687069041731E-02
(PID.TID 0000.0001) %MON dynstat_uvel_max             =   1.6907732512514E-01
(PID.TID 0000.0001) %MON dynstat_uvel_min             =  -1.5744871261956E-01
(PID.TID 0000.0001) %MON dynstat_uvel_mean            =  -3.0904817394126E-04
(PID.TID 0000.0001) %MON dynstat_uvel_sd              =   1.7446928563081E-02
(PID.TID 0000.0001) %MON dynstat_uvel_del2            =   3.5396179835316E-03
(PID.TID 0000.0001) %MON dynstat_vvel_max             =   1.3348394068129E-01
(PID.TID 0000.0001) %MON dynstat_vvel_min             =  -1.3069055867122E-01
(PID.TID 0000.0001) %MON dynstat_vvel_mean            =  -1.8051613373324E-03
(PID.TID 0000.0001) %MON dynstat_vvel_sd              =   1.4530608809244E-02
(PID.TID 0000.0001) %MON dynstat_vvel_del2            =   3.4352726670626E-03
(PID.TID 0000.0001) %MON dynstat_wvel_max             =   2.1665048919520E-04
(PID.TID 0000.0001) %MON dynstat_wvel_min             =  -2.1420228365148E-04
(PID.TID 0000.0001) %MON dynstat_wvel_mean            =   4.5061018561872E-22
(PID.TID 0000.0001) %MON dynstat_wvel_sd              =   2.1603177929835E-05
(PID.TID 0000.0001) %MON dynstat_wvel_del2            =   7.2224586511700E-06
(PID.TID 0000.0001) %MON dynstat_theta_max            =   2.9860215827543E+01
(PID.TID 0000.0001) %MON dynstat_theta_min            =  -2.0279207539361E+00
(PID.TID 0000.0001) %MON dynstat_theta_mean           =   3.5895216718226E+00
(PID.TID 0000.0001) %MON dynstat_theta_sd             =   4.3400717800464E+00
(PID.TID 0000.0001) %MON dynstat_theta_del2           =   1.3727172420475E-01
(PID.TID 0000.0001) %MON dynstat_salt_max             =   3.7398599003782E+01
(PID.TID 0000.0001) %MON dynstat_salt_min             =   2.9861398319270E+01
(PID.TID 0000.0001) %MON dynstat_salt_mean            =   3.4716023447611E+01
(PID.TID 0000.0001) %MON dynstat_salt_sd              =   2.9546528367630E-01
(PID.TID 0000.0001) %MON dynstat_salt_del2            =   2.5552185150349E-02
(PID.TID 0000.0001) %MON dynstat_sst_max              =   2.9860215827543E+01
(PID.TID 0000.0001) %MON dynstat_sst_min              =  -1.9433587138543E+00
(PID.TID 0000.0001) %MON dynstat_sst_mean             =   1.8611948244767E+01
(PID.TID 0000.0001) %MON dynstat_sst_sd               =   8.8833809765766E+00
(PID.TID 0000.0001) %MON dynstat_sst_del2             =   2.7255410660096E-01
(PID.TID 0000.0001) %MON dynstat_sss_max              =   3.7388179430430E+01
(PID.TID 0000.0001) %MON dynstat_sss_min              =   2.9861398319270E+01
(PID.TID 0000.0001) %MON dynstat_sss_mean             =   3.4844519013206E+01
(PID.TID 0000.0001) %MON dynstat_sss_sd               =   9.6248165282045E-01
(PID.TID 0000.0001) %MON dynstat_sss_del2             =   8.0312630126550E-02
(PID.TID 0000.0001) %MON extforcing_qnet_max          =   3.8518914286296E+02
(PID.TID 0000.0001) %MON extforcing_qnet_min          =  -1.7594771931966E+02
(PID.TID 0000.0001) %MON extforcing_qnet_mean         =  -1.5069070155187E+01
(PID.TID 0000.0001) %MON extforcing_qnet_sd           =   9.2094283864091E+01
(PID.TID 0000.0001) %MON extforcing_qnet_del2         =   8.9150097138181E+00
(PID.TID 0000.0001) %MON extforcing_qsw_max           =   0.0000000000000E+00
(PID.TID 0000.0001) %MON extforcing_qsw_min           =   0.0000000000000E+00
(PID.TID 0000.0001) %MON extforcing_qsw_mean          =   0.0000000000000E+00
(PID.TID 0000.0001) %MON extforcing_qsw_sd            =   0.0000000000000E+00
(PID.TID 0000.0001) %MON extforcing_qsw_del2          =   0.0000000000000E+00
(PID.TID 0000.0001) %MON extforcing_empmr_max         =   0.0000000000000E+00
(PID.TID 0000.0001) %MON extforcing_empmr_min         =   0.0000000000000E+00
(PID.TID 0000.0001) %MON extforcing_empmr_mean        =   0.0000000000000E+00
(PID.TID 0000.0001) %MON extforcing_empmr_sd          =   0.0000000000000E+00
(PID.TID 0000.0001) %MON extforcing_empmr_del2        =   0.0000000000000E+00
(PID.TID 0000.0001) %MON extforcing_fu_max            =   2.8660247027874E-01
(PID.TID 0000.0001) %MON extforcing_fu_min            =  -1.9415334165096E-01
(PID.TID 0000.0001) %MON extforcing_fu_mean           =   1.6924838815539E-02
(PID.TID 0000.0001) %MON extforcing_fu_sd             =   9.0257397064876E-02
(PID.TID 0000.0001) %MON extforcing_fu_del2           =   7.4020956136185E-03
(PID.TID 0000.0001) %MON extforcing_fv_max            =   1.8701238036156E-01
(PID.TID 0000.0001) %MON extforcing_fv_min            =  -1.6128480434418E-01
(PID.TID 0000.0001) %MON extforcing_fv_mean           =  -6.3683331536630E-03
(PID.TID 0000.0001) %MON extforcing_fv_sd             =   4.4725198845894E-02
(PID.TID 0000.0001) %MON extforcing_fv_del2           =   4.4107138196640E-03
(PID.TID 0000.0001) %MON advcfl_uvel_max              =   2.7943039119658E-02
(PID.TID 0000.0001) %MON advcfl_vvel_max              =   1.2966894424674E-02
(PID.TID 0000.0001) %MON advcfl_wvel_max              =   1.1147277433165E-01
(PID.TID 0000.0001) %MON advcfl_W_hf_max              =   1.1266362167494E-01
(PID.TID 0000.0001) %MON pe_b_mean                    =   2.5903523292331E-04
(PID.TID 0000.0001) %MON ke_max                       =   1.5814321836183E-02
(PID.TID 0000.0001) %MON ke_mean                      =   2.3458709266837E-04
(PID.TID 0000.0001) %MON ke_vol                       =   1.3226782436723E+18
(PID.TID 0000.0001) %MON vort_r_min                   =  -4.8304009502578E-07
(PID.TID 0000.0001) %MON vort_r_max                   =   4.1281629903913E-07
(PID.TID 0000.0001) %MON vort_a_mean                  =  -2.5205769149210E-05
(PID.TID 0000.0001) %MON vort_a_sd                    =   7.3403293409304E-05
(PID.TID 0000.0001) %MON vort_p_mean                  =  -3.1758669249746E-05
(PID.TID 0000.0001) %MON vort_p_sd                    =   1.3126465463536E-04
(PID.TID 0000.0001) %MON surfExpan_theta_mean         =   8.3117313721270E-06
(PID.TID 0000.0001) %MON surfExpan_salt_mean          =   6.9220410735565E-08
(PID.TID 0000.0001) // =======================================================
(PID.TID 0000.0001) // End MONITOR dynamic field statistics
(PID.TID 0000.0001) // =======================================================
time,SST,SSS,fu,fv,Q,E-P,i0,i1,a,b =   2.8080E+06  8.9094E-02  3.4543E+01 -2.3267E-02 -3.4144E-02  2.5102E+02  0.0000E+00     1     2  5.8333E-01  4.1667E-01
time,fu0,fu1,fu =   2.8080E+06 -3.5633E-02 -1.4435E-02 -2.3267E-02  5.833333333333334E-01  4.166666666666666E-01
 cg2d: Sum(rhs),rhsMax =   3.14384629440667E-12  1.15588664150395E+01
(PID.TID 0000.0001)                    cg2d_init_res =    3.33072767009252E-01
(PID.TID 0000.0001)                       cg2d_iters =    24
(PID.TID 0000.0001)                         cg2d_res =    3.39718529912745E-14
(PID.TID 0000.0001) // =======================================================
(PID.TID 0000.0001) // Begin MONITOR dynamic field statistics
(PID.TID 0000.0001) // =======================================================
(PID.TID 0000.0001) %MON time_tsnumber                =                    66
(PID.TID 0000.0001) %MON time_secondsf                =   2.8512000000000E+06
(PID.TID 0000.0001) %MON dynstat_eta_max              =   1.3690481816163E+00
(PID.TID 0000.0001) %MON dynstat_eta_min              =  -1.3268213372817E+00
(PID.TID 0000.0001) %MON dynstat_eta_mean             =  -2.4128828609999E-15
(PID.TID 0000.0001) %MON dynstat_eta_sd               =   4.5024379752017E-01
(PID.TID 0000.0001) %MON dynstat_eta_del2             =   2.5515793043296E-02
(PID.TID 0000.0001) %MON dynstat_uvel_max             =   1.7563070205116E-01
(PID.TID 0000.0001) %MON dynstat_uvel_min             =  -1.5443592421801E-01
(PID.TID 0000.0001) %MON dynstat_uvel_mean            =  -1.4813088679102E-04
(PID.TID 0000.0001) %MON dynstat_uvel_sd              =   1.7582518877637E-02
(PID.TID 0000.0001) %MON dynstat_uvel_del2            =   3.5659323304934E-03
(PID.TID 0000.0001) %MON dynstat_vvel_max             =   1.3327467054320E-01
(PID.TID 0000.0001) %MON dynstat_vvel_min             =  -1.3125249390238E-01
(PID.TID 0000.0001) %MON dynstat_vvel_mean            =  -1.8256899669403E-03
(PID.TID 0000.0001) %MON dynstat_vvel_sd              =   1.4499192351092E-02
(PID.TID 0000.0001) %MON dynstat_vvel_del2            =   3.4563528231389E-03
(PID.TID 0000.0001) %MON dynstat_wvel_max             =   2.1079221222086E-04
(PID.TID 0000.0001) %MON dynstat_wvel_min             =  -2.1179158603910E-04
(PID.TID 0000.0001) %MON dynstat_wvel_mean            =   2.0888082246726E-22
(PID.TID 0000.0001) %MON dynstat_wvel_sd              =   2.1569358868447E-05
(PID.TID 0000.0001) %MON dynstat_wvel_del2            =   7.2359891007454E-06
(PID.TID 0000.0001) %MON dynstat_theta_max            =   2.9758566779269E+01
(PID.TID 0000.0001) %MON dynstat_theta_min            =  -2.0283885196559E+00
(PID.TID 0000.0001) %MON dynstat_theta_mean           =   3.5894726799169E+00
(PID.TID 0000.0001) %MON dynstat_theta_sd             =   4.3400463262477E+00
(PID.TID 0000.0001) %MON dynstat_theta_del2           =   1.3720081450811E-01
(PID.TID 0000.0001) %MON dynstat_salt_max             =   3.7398881699876E+01
(PID.TID 0000.0001) %MON dynstat_salt_min             =   2.9862973059751E+01
(PID.TID 0000.0001) %MON dynstat_salt_mean            =   3.4716022051167E+01
(PID.TID 0000.0001) %MON dynstat_salt_sd              =   2.9550302239447E-01
(PID.TID 0000.0001) %MON dynstat_salt_del2            =   2.5544317880382E-02
(PID.TID 0000.0001) %MON dynstat_sst_max              =   2.9758566779269E+01
(PID.TID 0000.0001) %MON dynstat_sst_min              =  -1.9425403413480E+00
(PID.TID 0000.0001) %MON dynstat_sst_mean             =   1.8615312470092E+01
(PID.TID 0000.0001) %MON dynstat_sst_sd               =   8.8838283606170E+00
(PID.TID 0000.0001) %MON dynstat_sst_del2             =   2.7219419459627E-01
(PID.TID 0000.0001) %MON dynstat_sss_max              =   3.7385665147256E+01
(PID.TID 0000.0001) %MON dynstat_sss_min              =   2.9862973059751E+01
(PID.TID 0000.0001) %MON dynstat_sss_mean             =   3.4844652488246E+01
(PID.TID 0000.0001) %MON dynstat_sss_sd               =   9.6220318979867E-01
(PID.TID 0000.0001) %MON dynstat_sss_del2             =   8.0243140589292E-02
(PID.TID 0000.0001) %MON extforcing_qnet_max          =   3.8352959950765E+02
(PID.TID 0000.0001) %MON extforcing_qnet_min          =  -1.7582795969645E+02
(PID.TID 0000.0001) %MON extforcing_qnet_mean         =  -1.5026615571485E+01
(PID.TID 0000.0001) %MON extforcing_qnet_sd           =   9.1592724156768E+01
(PID.TID 0000.0001) %MON extforcing_qnet_del2         =   8.8981676607321E+00
(PID.TID 0000.0001) %MON extforcing_qsw_max           =   0.0000000000000E+00
(PID.TID 0000.0001) %MON extforcing_qsw_min           =   0.0000000000000E+00
(PID.TID 0000.0001) %MON extforcing_qsw_mean          =   0.0000000000000E+00
(PID.TID 0000.0001) %MON extforcing_qsw_sd            =   0.0000000000000E+00
(PID.TID 0000.0001) %MON extforcing_qsw_del2          =   0.0000000000000E+00
(PID.TID 0000.0001) %MON extforcing_empmr_max         =   0.0000000000000E+00
(PID.TID 0000.0001) %MON extforcing_empmr_min         =   0.0000000000000E+00
(PID.TID 0000.0001) %MON extforcing_empmr_mean        =   0.0000000000000E+00
(PID.TID 0000.0001) %MON extforcing_empmr_sd          =   0.0000000000000E+00
(PID.TID 0000.0001) %MON extforcing_empmr_del2        =   0.0000000000000E+00
(PID.TID 0000.0001) %MON extforcing_fu_max            =   2.8729604929686E-01
(PID.TID 0000.0001) %MON extforcing_fu_min            =  -1.9498330354691E-01
(PID.TID 0000.0001) %MON extforcing_fu_mean           =   1.6951988923273E-02
(PID.TID 0000.0001) %MON extforcing_fu_sd             =   9.0310272940727E-02
(PID.TID 0000.0001) %MON extforcing_fu_del2           =   7.4147344878270E-03
(PID.TID 0000.0001) %MON extforcing_fv_max            =   1.8646162003279E-01
(PID.TID 0000.0001) %MON extforcing_fv_min            =  -1.6078915446997E-01
(PID.TID 0000.0001) %MON extforcing_fv_mean           =  -6.4009636070206E-03
(PID.TID 0000.0001) %MON extforcing_fv_sd             =   4.4687656669359E-02
(PID.TID 0000.0001) %MON extforcing_fv_del2           =   4.4229804054233E-03
(PID.TID 0000.0001) %MON advcfl_uvel_max              =   2.7864205925790E-02
(PID.TID 0000.0001) %MON advcfl_vvel_max              =   1.2946565508904E-02
(PID.TID 0000.0001) %MON advcfl_wvel_max              =   1.2027123040451E-01
(PID.TID 0000.0001) %MON advcfl_W_hf_max              =   1.2040765186199E-01
(PID.TID 0000.0001) %MON pe_b_mean                    =   2.5940400543673E-04
(PID.TID 0000.0001) %MON ke_max                       =   1.5732137418167E-02
(PID.TID 0000.0001) %MON ke_mean                      =   2.3633552899326E-04
(PID.TID 0000.0001) %MON ke_vol                       =   1.3226782436723E+18
(PID.TID 0000.0001) %MON vort_r_min                   =  -4.8109001135387E-07
(PID.TID 0000.0001) %MON vort_r_max                   =   4.1161716877580E-07
(PID.TID 0000.0001) %MON vort_a_mean                  =  -2.5205769127289E-05
(PID.TID 0000.0001) %MON vort_a_sd                    =   7.3403322312305E-05
(PID.TID 0000.0001) %MON vort_p_mean                  =  -3.1758669222127E-05
(PID.TID 0000.0001) %MON vort_p_sd                    =   1.3126467416195E-04
(PID.TID 0000.0001) %MON surfExpan_theta_mean         =   7.3690603370711E-06
(PID.TID 0000.0001) %MON surfExpan_salt_mean          =   1.8104494967417E-07
(PID.TID 0000.0001) // =======================================================
(PID.TID 0000.0001) // End MONITOR dynamic field statistics
(PID.TID 0000.0001) // =======================================================
time,SST,SSS,fu,fv,Q,E-P,i0,i1,a,b =   2.8512E+06  6.4256E-02  3.4538E+01 -2.2914E-02 -3.3484E-02  2.5060E+02  0.0000E+00     1     2  6.0000E-01  4.0000E-01
time,fu0,fu1,fu =   2.8512E+06 -3.5633E-02 -1.4435E-02 -2.2914E-02  6.000000000000000E-01  4.000000000000000E-01
 cg2d: Sum(rhs),rhsMax =   3.94637794665087E-12  1.07539403354917E+01
(PID.TID 0000.0001)                    cg2d_init_res =    3.66933520850445E-01
(PID.TID 0000.0001)                       cg2d_iters =    24
(PID.TID 0000.0001)                         cg2d_res =    6.07088144894982E-14
(PID.TID 0000.0001) // =======================================================
(PID.TID 0000.0001) // Begin MONITOR dynamic field statistics
(PID.TID 0000.0001) // =======================================================
(PID.TID 0000.0001) %MON time_tsnumber                =                    67
(PID.TID 0000.0001) %MON time_secondsf                =   2.8944000000000E+06
(PID.TID 0000.0001) %MON dynstat_eta_max              =   1.2751286256154E+00
(PID.TID 0000.0001) %MON dynstat_eta_min              =  -1.3328702071506E+00
(PID.TID 0000.0001) %MON dynstat_eta_mean             =  -2.4365425985221E-15
(PID.TID 0000.0001) %MON dynstat_eta_sd               =   4.5041799771958E-01
(PID.TID 0000.0001) %MON dynstat_eta_del2             =   2.5347058168771E-02
(PID.TID 0000.0001) %MON dynstat_uvel_max             =   1.8105523922301E-01
(PID.TID 0000.0001) %MON dynstat_uvel_min             =  -1.5243949196218E-01
(PID.TID 0000.0001) %MON dynstat_uvel_mean            =   1.0875619186733E-05
(PID.TID 0000.0001) %MON dynstat_uvel_sd              =   1.7679944285697E-02
(PID.TID 0000.0001) %MON dynstat_uvel_del2            =   3.5885800767423E-03
(PID.TID 0000.0001) %MON dynstat_vvel_max             =   1.3944908995783E-01
(PID.TID 0000.0001) %MON dynstat_vvel_min             =  -1.3053246333703E-01
(PID.TID 0000.0001) %MON dynstat_vvel_mean            =  -1.8253680861598E-03
(PID.TID 0000.0001) %MON dynstat_vvel_sd              =   1.4476644880422E-02
(PID.TID 0000.0001) %MON dynstat_vvel_del2            =   3.4784499386607E-03
(PID.TID 0000.0001) %MON dynstat_wvel_max             =   2.0424589550959E-04
(PID.TID 0000.0001) %MON dynstat_wvel_min             =  -2.0811045952940E-04
(PID.TID 0000.0001) %MON dynstat_wvel_mean            =  -5.4211417234619E-23
(PID.TID 0000.0001) %MON dynstat_wvel_sd              =   2.1555516323083E-05
(PID.TID 0000.0001) %MON dynstat_wvel_del2            =   7.2563705592946E-06
(PID.TID 0000.0001) %MON dynstat_theta_max            =   2.9650707662661E+01
(PID.TID 0000.0001) %MON dynstat_theta_min            =  -2.0288423957833E+00
(PID.TID 0000.0001) %MON dynstat_theta_mean           =   3.5894337487822E+00
(PID.TID 0000.0001) %MON dynstat_theta_sd             =   4.3400638788378E+00
(PID.TID 0000.0001) %MON dynstat_theta_del2           =   1.3716596298167E-01
(PID.TID 0000.0001) %MON dynstat_salt_max             =   3.7392560797406E+01
(PID.TID 0000.0001) %MON dynstat_salt_min             =   2.9864607166451E+01
(PID.TID 0000.0001) %MON dynstat_salt_mean            =   3.4716019440078E+01
(PID.TID 0000.0001) %MON dynstat_salt_sd              =   2.9553540596548E-01
(PID.TID 0000.0001) %MON dynstat_salt_del2            =   2.5539638808166E-02
(PID.TID 0000.0001) %MON dynstat_sst_max              =   2.9650707662661E+01
(PID.TID 0000.0001) %MON dynstat_sst_min              =  -1.9416047984185E+00
(PID.TID 0000.0001) %MON dynstat_sst_mean             =   1.8618492645766E+01
(PID.TID 0000.0001) %MON dynstat_sst_sd               =   8.8848328045466E+00
(PID.TID 0000.0001) %MON dynstat_sst_del2             =   2.7203818793342E-01
(PID.TID 0000.0001) %MON dynstat_sss_max              =   3.7392554250595E+01
(PID.TID 0000.0001) %MON dynstat_sss_min              =   2.9864607166451E+01
(PID.TID 0000.0001) %MON dynstat_sss_mean             =   3.4844728276535E+01
(PID.TID 0000.0001) %MON dynstat_sss_sd               =   9.6197837738502E-01
(PID.TID 0000.0001) %MON dynstat_sss_del2             =   8.0206076268377E-02
(PID.TID 0000.0001) %MON extforcing_qnet_max          =   3.8187005615234E+02
(PID.TID 0000.0001) %MON extforcing_qnet_min          =  -1.7570820007324E+02
(PID.TID 0000.0001) %MON extforcing_qnet_mean         =  -1.4984160987784E+01
(PID.TID 0000.0001) %MON extforcing_qnet_sd           =   9.1092630456928E+01
(PID.TID 0000.0001) %MON extforcing_qnet_del2         =   8.8813974262224E+00
(PID.TID 0000.0001) %MON extforcing_qsw_max           =   0.0000000000000E+00
(PID.TID 0000.0001) %MON extforcing_qsw_min           =   0.0000000000000E+00
(PID.TID 0000.0001) %MON extforcing_qsw_mean          =   0.0000000000000E+00
(PID.TID 0000.0001) %MON extforcing_qsw_sd            =   0.0000000000000E+00
(PID.TID 0000.0001) %MON extforcing_qsw_del2          =   0.0000000000000E+00
(PID.TID 0000.0001) %MON extforcing_empmr_max         =   0.0000000000000E+00
(PID.TID 0000.0001) %MON extforcing_empmr_min         =   0.0000000000000E+00
(PID.TID 0000.0001) %MON extforcing_empmr_mean        =   0.0000000000000E+00
(PID.TID 0000.0001) %MON extforcing_empmr_sd          =   0.0000000000000E+00
(PID.TID 0000.0001) %MON extforcing_empmr_del2        =   0.0000000000000E+00
(PID.TID 0000.0001) %MON extforcing_fu_max            =   2.8798962831497E-01
(PID.TID 0000.0001) %MON extforcing_fu_min            =  -1.9581326544285E-01
(PID.TID 0000.0001) %MON extforcing_fu_mean           =   1.6979139031008E-02
(PID.TID 0000.0001) %MON extforcing_fu_sd             =   9.0367493904055E-02
(PID.TID 0000.0001) %MON extforcing_fu_del2           =   7.4291549741393E-03
(PID.TID 0000.0001) %MON extforcing_fv_max            =   1.8591085970402E-01
(PID.TID 0000.0001) %MON extforcing_fv_min            =  -1.6161646842957E-01
(PID.TID 0000.0001) %MON extforcing_fv_mean           =  -6.4335940603783E-03
(PID.TID 0000.0001) %MON extforcing_fv_sd             =   4.4654100071951E-02
(PID.TID 0000.0001) %MON extforcing_fv_del2           =   4.4367562301529E-03
(PID.TID 0000.0001) %MON advcfl_uvel_max              =   2.7545444433977E-02
(PID.TID 0000.0001) %MON advcfl_vvel_max              =   1.3546360842144E-02
(PID.TID 0000.0001) %MON advcfl_wvel_max              =   1.3524416064144E-01
(PID.TID 0000.0001) %MON advcfl_W_hf_max              =   1.2550289132596E-01
(PID.TID 0000.0001) %MON pe_b_mean                    =   2.5960477209440E-04
(PID.TID 0000.0001) %MON ke_max                       =   1.6630887930860E-02
(PID.TID 0000.0001) %MON ke_mean                      =   2.3759255829224E-04
(PID.TID 0000.0001) %MON ke_vol                       =   1.3226782436723E+18
(PID.TID 0000.0001) %MON vort_r_min                   =  -4.8013416856862E-07
(PID.TID 0000.0001) %MON vort_r_max                   =   4.1091954786481E-07
(PID.TID 0000.0001) %MON vort_a_mean                  =  -2.5205769106253E-05
(PID.TID 0000.0001) %MON vort_a_sd                    =   7.3403350888531E-05
(PID.TID 0000.0001) %MON vort_p_mean                  =  -3.1758669195622E-05
(PID.TID 0000.0001) %MON vort_p_sd                    =   1.3126469110938E-04
(PID.TID 0000.0001) %MON surfExpan_theta_mean         =   6.4885884246639E-06
(PID.TID 0000.0001) %MON surfExpan_salt_mean          =   2.8046164049654E-07
(PID.TID 0000.0001) // =======================================================
(PID.TID 0000.0001) // End MONITOR dynamic field statistics
(PID.TID 0000.0001) // =======================================================
time,SST,SSS,fu,fv,Q,E-P,i0,i1,a,b =   2.8944E+06  3.9418E-02  3.4534E+01 -2.2561E-02 -3.2824E-02  2.5018E+02  0.0000E+00     1     2  6.1667E-01  3.8333E-01
time,fu0,fu1,fu =   2.8944E+06 -3.5633E-02 -1.4435E-02 -2.2561E-02  6.166666666666667E-01  3.833333333333333E-01
 cg2d: Sum(rhs),rhsMax =   3.92181426223104E-12  9.88730994742754E+00
(PID.TID 0000.0001)                    cg2d_init_res =    4.10661853281404E-01
(PID.TID 0000.0001)                       cg2d_iters =    24
(PID.TID 0000.0001)                         cg2d_res =    7.17031691151443E-14
(PID.TID 0000.0001) // =======================================================
(PID.TID 0000.0001) // Begin MONITOR dynamic field statistics
(PID.TID 0000.0001) // =======================================================
(PID.TID 0000.0001) %MON time_tsnumber                =                    68
(PID.TID 0000.0001) %MON time_secondsf                =   2.9376000000000E+06
(PID.TID 0000.0001) %MON dynstat_eta_max              =   1.1739877593125E+00
(PID.TID 0000.0001) %MON dynstat_eta_min              =  -1.3353780634801E+00
(PID.TID 0000.0001) %MON dynstat_eta_mean             =  -2.0710477657111E-15
(PID.TID 0000.0001) %MON dynstat_eta_sd               =   4.5048442711196E-01
(PID.TID 0000.0001) %MON dynstat_eta_del2             =   2.5173771862767E-02
(PID.TID 0000.0001) %MON dynstat_uvel_max             =   1.8510983199261E-01
(PID.TID 0000.0001) %MON dynstat_uvel_min             =  -1.5124089609611E-01
(PID.TID 0000.0001) %MON dynstat_uvel_mean            =   1.6720905508814E-04
(PID.TID 0000.0001) %MON dynstat_uvel_sd              =   1.7735280803025E-02
(PID.TID 0000.0001) %MON dynstat_uvel_del2            =   3.6050046455128E-03
(PID.TID 0000.0001) %MON dynstat_vvel_max             =   1.4499242980034E-01
(PID.TID 0000.0001) %MON dynstat_vvel_min             =  -1.2975563711179E-01
(PID.TID 0000.0001) %MON dynstat_vvel_mean            =  -1.8064543721543E-03
(PID.TID 0000.0001) %MON dynstat_vvel_sd              =   1.4464236060384E-02
(PID.TID 0000.0001) %MON dynstat_vvel_del2            =   3.4972345924841E-03
(PID.TID 0000.0001) %MON dynstat_wvel_max             =   1.9715044655891E-04
(PID.TID 0000.0001) %MON dynstat_wvel_min             =  -2.0323114058428E-04
(PID.TID 0000.0001) %MON dynstat_wvel_mean            =   4.0288705044471E-22
(PID.TID 0000.0001) %MON dynstat_wvel_sd              =   2.1547660194641E-05
(PID.TID 0000.0001) %MON dynstat_wvel_del2            =   7.2728891556574E-06
(PID.TID 0000.0001) %MON dynstat_theta_max            =   2.9539094671387E+01
(PID.TID 0000.0001) %MON dynstat_theta_min            =  -2.0292812750629E+00
(PID.TID 0000.0001) %MON dynstat_theta_mean           =   3.5894041566556E+00
(PID.TID 0000.0001) %MON dynstat_theta_sd             =   4.3401142819564E+00
(PID.TID 0000.0001) %MON dynstat_theta_del2           =   1.3716525423177E-01
(PID.TID 0000.0001) %MON dynstat_salt_max             =   3.7391841652675E+01
(PID.TID 0000.0001) %MON dynstat_salt_min             =   2.9866285906578E+01
(PID.TID 0000.0001) %MON dynstat_salt_mean            =   3.4716015790895E+01
(PID.TID 0000.0001) %MON dynstat_salt_sd              =   2.9555860726556E-01
(PID.TID 0000.0001) %MON dynstat_salt_del2            =   2.5541971276718E-02
(PID.TID 0000.0001) %MON dynstat_sst_max              =   2.9539094671387E+01
(PID.TID 0000.0001) %MON dynstat_sst_min              =  -1.9405645158444E+00
(PID.TID 0000.0001) %MON dynstat_sst_mean             =   1.8622396661861E+01
(PID.TID 0000.0001) %MON dynstat_sst_sd               =   8.8851284649925E+00
(PID.TID 0000.0001) %MON dynstat_sst_del2             =   2.7140066830030E-01
(PID.TID 0000.0001) %MON dynstat_sss_max              =   3.7391840363691E+01
(PID.TID 0000.0001) %MON dynstat_sss_min              =   2.9866285906578E+01
(PID.TID 0000.0001) %MON dynstat_sss_mean             =   3.4844923156563E+01
(PID.TID 0000.0001) %MON dynstat_sss_sd               =   9.6161490870890E-01
(PID.TID 0000.0001) %MON dynstat_sss_del2             =   8.0064715956699E-02
(PID.TID 0000.0001) %MON extforcing_qnet_max          =   3.8021051279704E+02
(PID.TID 0000.0001) %MON extforcing_qnet_min          =  -1.7558844045003E+02
(PID.TID 0000.0001) %MON extforcing_qnet_mean         =  -1.4941706404082E+01
(PID.TID 0000.0001) %MON extforcing_qnet_sd           =   9.0594027042371E+01
(PID.TID 0000.0001) %MON extforcing_qnet_del2         =   8.8647641512620E+00
(PID.TID 0000.0001) %MON extforcing_qsw_max           =   0.0000000000000E+00
(PID.TID 0000.0001) %MON extforcing_qsw_min           =   0.0000000000000E+00
(PID.TID 0000.0001) %MON extforcing_qsw_mean          =   0.0000000000000E+00
(PID.TID 0000.0001) %MON extforcing_qsw_sd            =   0.0000000000000E+00
(PID.TID 0000.0001) %MON extforcing_qsw_del2          =   0.0000000000000E+00
(PID.TID 0000.0001) %MON extforcing_empmr_max         =   0.0000000000000E+00
(PID.TID 0000.0001) %MON extforcing_empmr_min         =   0.0000000000000E+00
(PID.TID 0000.0001) %MON extforcing_empmr_mean        =   0.0000000000000E+00
(PID.TID 0000.0001) %MON extforcing_empmr_sd          =   0.0000000000000E+00
(PID.TID 0000.0001) %MON extforcing_empmr_del2        =   0.0000000000000E+00
(PID.TID 0000.0001) %MON extforcing_fu_max            =   2.8868320733309E-01
(PID.TID 0000.0001) %MON extforcing_fu_min            =  -1.9664322733879E-01
(PID.TID 0000.0001) %MON extforcing_fu_mean           =   1.7006289138742E-02
(PID.TID 0000.0001) %MON extforcing_fu_sd             =   9.0429051706515E-02
(PID.TID 0000.0001) %MON extforcing_fu_del2           =   7.4446320345209E-03
(PID.TID 0000.0001) %MON extforcing_fv_max            =   1.8536009937525E-01
(PID.TID 0000.0001) %MON extforcing_fv_min            =  -1.6320241789023E-01
(PID.TID 0000.0001) %MON extforcing_fv_mean           =  -6.4662245137358E-03
(PID.TID 0000.0001) %MON extforcing_fv_sd             =   4.4624538044854E-02
(PID.TID 0000.0001) %MON extforcing_fv_del2           =   4.4519587535645E-03
(PID.TID 0000.0001) %MON advcfl_uvel_max              =   2.6999860538719E-02
(PID.TID 0000.0001) %MON advcfl_vvel_max              =   1.4084851855603E-02
(PID.TID 0000.0001) %MON advcfl_wvel_max              =   1.4564284747617E-01
(PID.TID 0000.0001) %MON advcfl_W_hf_max              =   1.2779923346767E-01
(PID.TID 0000.0001) %MON pe_b_mean                    =   2.5968135277752E-04
(PID.TID 0000.0001) %MON ke_max                       =   1.7433020573087E-02
(PID.TID 0000.0001) %MON ke_mean                      =   2.3830348893450E-04
(PID.TID 0000.0001) %MON ke_vol                       =   1.3226782436723E+18
(PID.TID 0000.0001) %MON vort_r_min                   =  -4.8014486436230E-07
(PID.TID 0000.0001) %MON vort_r_max                   =   4.1206164885779E-07
(PID.TID 0000.0001) %MON vort_a_mean                  =  -2.5205769086843E-05
(PID.TID 0000.0001) %MON vort_a_sd                    =   7.3403378993648E-05
(PID.TID 0000.0001) %MON vort_p_mean                  =  -3.1758669171166E-05
(PID.TID 0000.0001) %MON vort_p_sd                    =   1.3126470572802E-04
(PID.TID 0000.0001) %MON surfExpan_theta_mean         =   5.6736177779348E-06
(PID.TID 0000.0001) %MON surfExpan_salt_mean          =   3.6276151470823E-07
(PID.TID 0000.0001) // =======================================================
(PID.TID 0000.0001) // End MONITOR dynamic field statistics
(PID.TID 0000.0001) // =======================================================
time,SST,SSS,fu,fv,Q,E-P,i0,i1,a,b =   2.9376E+06  1.4580E-02  3.4529E+01 -2.2207E-02 -3.2163E-02  2.4975E+02  0.0000E+00     1     2  6.3333E-01  3.6667E-01
time,fu0,fu1,fu =   2.9376E+06 -3.5633E-02 -1.4435E-02 -2.2207E-02  6.333333333333333E-01  3.666666666666667E-01
 cg2d: Sum(rhs),rhsMax =   3.81782799818708E-12  8.98660434991358E+00
(PID.TID 0000.0001)                    cg2d_init_res =    4.64150894380512E-01
(PID.TID 0000.0001)                       cg2d_iters =    24
(PID.TID 0000.0001)                         cg2d_res =    8.05736238219004E-14
(PID.TID 0000.0001) // =======================================================
(PID.TID 0000.0001) // Begin MONITOR dynamic field statistics
(PID.TID 0000.0001) // =======================================================
(PID.TID 0000.0001) %MON time_tsnumber                =                    69
(PID.TID 0000.0001) %MON time_secondsf                =   2.9808000000000E+06
(PID.TID 0000.0001) %MON dynstat_eta_max              =   1.0688421735894E+00
(PID.TID 0000.0001) %MON dynstat_eta_min              =  -1.3346226941113E+00
(PID.TID 0000.0001) %MON dynstat_eta_mean             =  -2.0459163698741E-15
(PID.TID 0000.0001) %MON dynstat_eta_sd               =   4.5048859404987E-01
(PID.TID 0000.0001) %MON dynstat_eta_del2             =   2.4998685825099E-02
(PID.TID 0000.0001) %MON dynstat_uvel_max             =   1.8774931990779E-01
(PID.TID 0000.0001) %MON dynstat_uvel_min             =  -1.5079287027805E-01
(PID.TID 0000.0001) %MON dynstat_uvel_mean            =   3.2016779277999E-04
(PID.TID 0000.0001) %MON dynstat_uvel_sd              =   1.7746098765087E-02
(PID.TID 0000.0001) %MON dynstat_uvel_del2            =   3.6128389983273E-03
(PID.TID 0000.0001) %MON dynstat_vvel_max             =   1.4983339443298E-01
(PID.TID 0000.0001) %MON dynstat_vvel_min             =  -1.2843853799044E-01
(PID.TID 0000.0001) %MON dynstat_vvel_mean            =  -1.7713946868705E-03
(PID.TID 0000.0001) %MON dynstat_vvel_sd              =   1.4461399474825E-02
(PID.TID 0000.0001) %MON dynstat_vvel_del2            =   3.5123830217915E-03
(PID.TID 0000.0001) %MON dynstat_wvel_max             =   1.8964529566088E-04
(PID.TID 0000.0001) %MON dynstat_wvel_min             =  -1.9725451237030E-04
(PID.TID 0000.0001) %MON dynstat_wvel_mean            =  -1.5863175866072E-22
(PID.TID 0000.0001) %MON dynstat_wvel_sd              =   2.1530746108386E-05
(PID.TID 0000.0001) %MON dynstat_wvel_del2            =   7.2733171523902E-06
(PID.TID 0000.0001) %MON dynstat_theta_max            =   2.9504409315960E+01
(PID.TID 0000.0001) %MON dynstat_theta_min            =  -2.0297021918990E+00
(PID.TID 0000.0001) %MON dynstat_theta_mean           =   3.5893830051392E+00
(PID.TID 0000.0001) %MON dynstat_theta_sd             =   4.3402000458014E+00
(PID.TID 0000.0001) %MON dynstat_theta_del2           =   1.3713954669232E-01
(PID.TID 0000.0001) %MON dynstat_salt_max             =   3.7391212885154E+01
(PID.TID 0000.0001) %MON dynstat_salt_min             =   2.9867991203851E+01
(PID.TID 0000.0001) %MON dynstat_salt_mean            =   3.4716011320209E+01
(PID.TID 0000.0001) %MON dynstat_salt_sd              =   2.9557740962198E-01
(PID.TID 0000.0001) %MON dynstat_salt_del2            =   2.5538111155786E-02
(PID.TID 0000.0001) %MON dynstat_sst_max              =   2.9504409315960E+01
(PID.TID 0000.0001) %MON dynstat_sst_min              =  -1.9394365278315E+00
(PID.TID 0000.0001) %MON dynstat_sst_mean             =   1.8625404032526E+01
(PID.TID 0000.0001) %MON dynstat_sst_sd               =   8.8864298097037E+00
(PID.TID 0000.0001) %MON dynstat_sst_del2             =   2.7103921713768E-01
(PID.TID 0000.0001) %MON dynstat_sss_max              =   3.7391211532720E+01
(PID.TID 0000.0001) %MON dynstat_sss_min              =   2.9867991203851E+01
(PID.TID 0000.0001) %MON dynstat_sss_mean             =   3.4844905135171E+01
(PID.TID 0000.0001) %MON dynstat_sss_sd               =   9.6135629960692E-01
(PID.TID 0000.0001) %MON dynstat_sss_del2             =   7.9999585588782E-02
(PID.TID 0000.0001) %MON extforcing_qnet_max          =   3.7855096944173E+02
(PID.TID 0000.0001) %MON extforcing_qnet_min          =  -1.7546868082682E+02
(PID.TID 0000.0001) %MON extforcing_qnet_mean         =  -1.4899251820380E+01
(PID.TID 0000.0001) %MON extforcing_qnet_sd           =   9.0096938655160E+01
(PID.TID 0000.0001) %MON extforcing_qnet_del2         =   8.8484299812626E+00
(PID.TID 0000.0001) %MON extforcing_qsw_max           =   0.0000000000000E+00
(PID.TID 0000.0001) %MON extforcing_qsw_min           =   0.0000000000000E+00
(PID.TID 0000.0001) %MON extforcing_qsw_mean          =   0.0000000000000E+00
(PID.TID 0000.0001) %MON extforcing_qsw_sd            =   0.0000000000000E+00
(PID.TID 0000.0001) %MON extforcing_qsw_del2          =   0.0000000000000E+00
(PID.TID 0000.0001) %MON extforcing_empmr_max         =   0.0000000000000E+00
(PID.TID 0000.0001) %MON extforcing_empmr_min         =   0.0000000000000E+00
(PID.TID 0000.0001) %MON extforcing_empmr_mean        =   0.0000000000000E+00
(PID.TID 0000.0001) %MON extforcing_empmr_sd          =   0.0000000000000E+00
(PID.TID 0000.0001) %MON extforcing_empmr_del2        =   0.0000000000000E+00
(PID.TID 0000.0001) %MON extforcing_fu_max            =   2.8937678635120E-01
(PID.TID 0000.0001) %MON extforcing_fu_min            =  -1.9747318923473E-01
(PID.TID 0000.0001) %MON extforcing_fu_mean           =   1.7033439246477E-02
(PID.TID 0000.0001) %MON extforcing_fu_sd             =   9.0494937497899E-02
(PID.TID 0000.0001) %MON extforcing_fu_del2           =   7.4606105549812E-03
(PID.TID 0000.0001) %MON extforcing_fv_max            =   1.8480933904648E-01
(PID.TID 0000.0001) %MON extforcing_fv_min            =  -1.6478836735090E-01
(PID.TID 0000.0001) %MON extforcing_fv_mean           =  -6.4988549670934E-03
(PID.TID 0000.0001) %MON extforcing_fv_sd             =   4.4598978531363E-02
(PID.TID 0000.0001) %MON extforcing_fv_del2           =   4.4684511653714E-03
(PID.TID 0000.0001) %MON advcfl_uvel_max              =   2.6255122857662E-02
(PID.TID 0000.0001) %MON advcfl_vvel_max              =   1.4555112749795E-02
(PID.TID 0000.0001) %MON advcfl_wvel_max              =   1.5140964344126E-01
(PID.TID 0000.0001) %MON advcfl_W_hf_max              =   1.2722708403119E-01
(PID.TID 0000.0001) %MON pe_b_mean                    =   2.5968615685515E-04
(PID.TID 0000.0001) %MON ke_max                       =   1.8091320995461E-02
(PID.TID 0000.0001) %MON ke_mean                      =   2.3841858947390E-04
(PID.TID 0000.0001) %MON ke_vol                       =   1.3226782436723E+18
(PID.TID 0000.0001) %MON vort_r_min                   =  -4.8103485657277E-07
(PID.TID 0000.0001) %MON vort_r_max                   =   4.2005080371697E-07
(PID.TID 0000.0001) %MON vort_a_mean                  =  -2.5205769068485E-05
(PID.TID 0000.0001) %MON vort_a_sd                    =   7.3403406513867E-05
(PID.TID 0000.0001) %MON vort_p_mean                  =  -3.1758669148035E-05
(PID.TID 0000.0001) %MON vort_p_sd                    =   1.3126471840106E-04
(PID.TID 0000.0001) %MON surfExpan_theta_mean         =   4.9514682912070E-06
(PID.TID 0000.0001) %MON surfExpan_salt_mean          =   4.2842936962598E-07
(PID.TID 0000.0001) // =======================================================
(PID.TID 0000.0001) // End MONITOR dynamic field statistics
(PID.TID 0000.0001) // =======================================================
time,SST,SSS,fu,fv,Q,E-P,i0,i1,a,b =   2.9808E+06 -1.0258E-02  3.4524E+01 -2.1854E-02 -3.1503E-02  2.4933E+02  0.0000E+00     1     2  6.5000E-01  3.5000E-01
time,fu0,fu1,fu =   2.9808E+06 -3.5633E-02 -1.4435E-02 -2.1854E-02  6.500000000000000E-01  3.500000000000000E-01
 cg2d: Sum(rhs),rhsMax =   3.73369390960221E-12  8.07892755116583E+00
(PID.TID 0000.0001)                    cg2d_init_res =    5.27115210498686E-01
(PID.TID 0000.0001)                       cg2d_iters =    24
(PID.TID 0000.0001)                         cg2d_res =    8.69362564695065E-14
(PID.TID 0000.0001) // =======================================================
(PID.TID 0000.0001) // Begin MONITOR dynamic field statistics
(PID.TID 0000.0001) // =======================================================
(PID.TID 0000.0001) %MON time_tsnumber                =                    70
(PID.TID 0000.0001) %MON time_secondsf                =   3.0240000000000E+06
(PID.TID 0000.0001) %MON dynstat_eta_max              =   9.6284956734576E-01
(PID.TID 0000.0001) %MON dynstat_eta_min              =  -1.3352460651651E+00
(PID.TID 0000.0001) %MON dynstat_eta_mean             =  -1.6201684495217E-15
(PID.TID 0000.0001) %MON dynstat_eta_sd               =   4.5047740666370E-01
(PID.TID 0000.0001) %MON dynstat_eta_del2             =   2.4851910688091E-02
(PID.TID 0000.0001) %MON dynstat_uvel_max             =   1.8953428257849E-01
(PID.TID 0000.0001) %MON dynstat_uvel_min             =  -1.5016555579912E-01
(PID.TID 0000.0001) %MON dynstat_uvel_mean            =   4.6901240782604E-04
(PID.TID 0000.0001) %MON dynstat_uvel_sd              =   1.7711586479892E-02
(PID.TID 0000.0001) %MON dynstat_uvel_del2            =   3.6111728339779E-03
(PID.TID 0000.0001) %MON dynstat_vvel_max             =   1.5391142645362E-01
(PID.TID 0000.0001) %MON dynstat_vvel_min             =  -1.2664017737268E-01
(PID.TID 0000.0001) %MON dynstat_vvel_mean            =  -1.7226112957933E-03
(PID.TID 0000.0001) %MON dynstat_vvel_sd              =   1.4466072277815E-02
(PID.TID 0000.0001) %MON dynstat_vvel_del2            =   3.5241421742511E-03
(PID.TID 0000.0001) %MON dynstat_wvel_max             =   1.8966891941868E-04
(PID.TID 0000.0001) %MON dynstat_wvel_min             =  -1.9030696627672E-04
(PID.TID 0000.0001) %MON dynstat_wvel_mean            =   3.3786087407063E-22
(PID.TID 0000.0001) %MON dynstat_wvel_sd              =   2.1489015886886E-05
(PID.TID 0000.0001) %MON dynstat_wvel_del2            =   7.2459250140107E-06
(PID.TID 0000.0001) %MON dynstat_theta_max            =   2.9502825186856E+01
(PID.TID 0000.0001) %MON dynstat_theta_min            =  -2.0301007215619E+00
(PID.TID 0000.0001) %MON dynstat_theta_mean           =   3.5893692661743E+00
(PID.TID 0000.0001) %MON dynstat_theta_sd             =   4.3403132553680E+00
(PID.TID 0000.0001) %MON dynstat_theta_del2           =   1.3715203993872E-01
(PID.TID 0000.0001) %MON dynstat_salt_max             =   3.7390682771074E+01
(PID.TID 0000.0001) %MON dynstat_salt_min             =   2.9869702422240E+01
(PID.TID 0000.0001) %MON dynstat_salt_mean            =   3.4716006227117E+01
(PID.TID 0000.0001) %MON dynstat_salt_sd              =   2.9558975068301E-01
(PID.TID 0000.0001) %MON dynstat_salt_del2            =   2.5537647466772E-02
(PID.TID 0000.0001) %MON dynstat_sst_max              =   2.9502825186856E+01
(PID.TID 0000.0001) %MON dynstat_sst_min              =  -1.9382398786154E+00
(PID.TID 0000.0001) %MON dynstat_sst_mean             =   1.8628064541606E+01
(PID.TID 0000.0001) %MON dynstat_sst_sd               =   8.8882181695713E+00
(PID.TID 0000.0001) %MON dynstat_sst_del2             =   2.7089534061056E-01
(PID.TID 0000.0001) %MON dynstat_sss_max              =   3.7390681342009E+01
(PID.TID 0000.0001) %MON dynstat_sss_min              =   2.9869702422240E+01
(PID.TID 0000.0001) %MON dynstat_sss_mean             =   3.4844814154455E+01
(PID.TID 0000.0001) %MON dynstat_sss_sd               =   9.6114112950686E-01
(PID.TID 0000.0001) %MON dynstat_sss_del2             =   7.9974146623164E-02
(PID.TID 0000.0001) %MON extforcing_qnet_max          =   3.7689142608643E+02
(PID.TID 0000.0001) %MON extforcing_qnet_min          =  -1.7534892120361E+02
(PID.TID 0000.0001) %MON extforcing_qnet_mean         =  -1.4856797236679E+01
(PID.TID 0000.0001) %MON extforcing_qnet_sd           =   8.9601390510394E+01
(PID.TID 0000.0001) %MON extforcing_qnet_del2         =   8.8324008286550E+00
(PID.TID 0000.0001) %MON extforcing_qsw_max           =   0.0000000000000E+00
(PID.TID 0000.0001) %MON extforcing_qsw_min           =   0.0000000000000E+00
(PID.TID 0000.0001) %MON extforcing_qsw_mean          =   0.0000000000000E+00
(PID.TID 0000.0001) %MON extforcing_qsw_sd            =   0.0000000000000E+00
(PID.TID 0000.0001) %MON extforcing_qsw_del2          =   0.0000000000000E+00
(PID.TID 0000.0001) %MON extforcing_empmr_max         =   0.0000000000000E+00
(PID.TID 0000.0001) %MON extforcing_empmr_min         =   0.0000000000000E+00
(PID.TID 0000.0001) %MON extforcing_empmr_mean        =   0.0000000000000E+00
(PID.TID 0000.0001) %MON extforcing_empmr_sd          =   0.0000000000000E+00
(PID.TID 0000.0001) %MON extforcing_empmr_del2        =   0.0000000000000E+00
(PID.TID 0000.0001) %MON extforcing_fu_max            =   2.9007036536932E-01
(PID.TID 0000.0001) %MON extforcing_fu_min            =  -1.9830315113068E-01
(PID.TID 0000.0001) %MON extforcing_fu_mean           =   1.7060589354211E-02
(PID.TID 0000.0001) %MON extforcing_fu_sd             =   9.0565141832423E-02
(PID.TID 0000.0001) %MON extforcing_fu_del2           =   7.4777725644831E-03
(PID.TID 0000.0001) %MON extforcing_fv_max            =   1.8425857871771E-01
(PID.TID 0000.0001) %MON extforcing_fv_min            =  -1.6637431681156E-01
(PID.TID 0000.0001) %MON extforcing_fv_mean           =  -6.5314854204510E-03
(PID.TID 0000.0001) %MON extforcing_fv_sd             =   4.4577428416283E-02
(PID.TID 0000.0001) %MON extforcing_fv_del2           =   4.4860367169734E-03
(PID.TID 0000.0001) %MON advcfl_uvel_max              =   2.6504734490016E-02
(PID.TID 0000.0001) %MON advcfl_vvel_max              =   1.4951260858714E-02
(PID.TID 0000.0001) %MON advcfl_wvel_max              =   1.5262935299077E-01
(PID.TID 0000.0001) %MON advcfl_W_hf_max              =   1.2380003487765E-01
(PID.TID 0000.0001) %MON pe_b_mean                    =   2.5967325897811E-04
(PID.TID 0000.0001) %MON ke_max                       =   1.8598766358469E-02
(PID.TID 0000.0001) %MON ke_mean                      =   2.3790016114998E-04
(PID.TID 0000.0001) %MON ke_vol                       =   1.3226782436723E+18
(PID.TID 0000.0001) %MON vort_r_min                   =  -4.8266069393650E-07
(PID.TID 0000.0001) %MON vort_r_max                   =   4.2571509027528E-07
(PID.TID 0000.0001) %MON vort_a_mean                  =  -2.5205769054656E-05
(PID.TID 0000.0001) %MON vort_a_sd                    =   7.3403433289997E-05
(PID.TID 0000.0001) %MON vort_p_mean                  =  -3.1758669130611E-05
(PID.TID 0000.0001) %MON vort_p_sd                    =   1.3126472900842E-04
(PID.TID 0000.0001) %MON surfExpan_theta_mean         =   4.3274860099838E-06
(PID.TID 0000.0001) %MON surfExpan_salt_mean          =   4.7435881768419E-07
(PID.TID 0000.0001) // =======================================================
(PID.TID 0000.0001) // End MONITOR dynamic field statistics
(PID.TID 0000.0001) // =======================================================
time,SST,SSS,fu,fv,Q,E-P,i0,i1,a,b =   3.0240E+06 -3.5096E-02  3.4519E+01 -2.1501E-02 -3.0843E-02  2.4891E+02  0.0000E+00     1     2  6.6667E-01  3.3333E-01
time,fu0,fu1,fu =   3.0240E+06 -3.5633E-02 -1.4435E-02 -2.1501E-02  6.666666666666666E-01  3.333333333333334E-01
 cg2d: Sum(rhs),rhsMax =   3.43072792396981E-12  7.98205113094413E+00
(PID.TID 0000.0001)                    cg2d_init_res =    5.39676382855755E-01
(PID.TID 0000.0001)                       cg2d_iters =    24
(PID.TID 0000.0001)                         cg2d_res =    7.71444354021866E-14
(PID.TID 0000.0001) // =======================================================
(PID.TID 0000.0001) // Begin MONITOR dynamic field statistics
(PID.TID 0000.0001) // =======================================================
(PID.TID 0000.0001) %MON time_tsnumber                =                    71
(PID.TID 0000.0001) %MON time_secondsf                =   3.0672000000000E+06
(PID.TID 0000.0001) %MON dynstat_eta_max              =   8.7688896001713E-01
(PID.TID 0000.0001) %MON dynstat_eta_min              =  -1.3376867193624E+00
(PID.TID 0000.0001) %MON dynstat_eta_mean             =  -1.4580950023266E-15
(PID.TID 0000.0001) %MON dynstat_eta_sd               =   4.5049427456290E-01
(PID.TID 0000.0001) %MON dynstat_eta_del2             =   2.4739040798467E-02
(PID.TID 0000.0001) %MON dynstat_uvel_max             =   1.9131572510068E-01
(PID.TID 0000.0001) %MON dynstat_uvel_min             =  -1.4990486579826E-01
(PID.TID 0000.0001) %MON dynstat_uvel_mean            =   6.1301454495340E-04
(PID.TID 0000.0001) %MON dynstat_uvel_sd              =   1.7632524326036E-02
(PID.TID 0000.0001) %MON dynstat_uvel_del2            =   3.6019225375631E-03
(PID.TID 0000.0001) %MON dynstat_vvel_max             =   1.5717680998910E-01
(PID.TID 0000.0001) %MON dynstat_vvel_min             =  -1.2442626609646E-01
(PID.TID 0000.0001) %MON dynstat_vvel_mean            =  -1.6625956211869E-03
(PID.TID 0000.0001) %MON dynstat_vvel_sd              =   1.4475232763275E-02
(PID.TID 0000.0001) %MON dynstat_vvel_del2            =   3.5317234068739E-03
(PID.TID 0000.0001) %MON dynstat_wvel_max             =   1.9249279657892E-04
(PID.TID 0000.0001) %MON dynstat_wvel_min             =  -1.8253668945595E-04
(PID.TID 0000.0001) %MON dynstat_wvel_mean            =   5.2364994942515E-23
(PID.TID 0000.0001) %MON dynstat_wvel_sd              =   2.1409958713746E-05
(PID.TID 0000.0001) %MON dynstat_wvel_del2            =   7.2009688702167E-06
(PID.TID 0000.0001) %MON dynstat_theta_max            =   2.9502767803699E+01
(PID.TID 0000.0001) %MON dynstat_theta_min            =  -2.0304712888132E+00
(PID.TID 0000.0001) %MON dynstat_theta_mean           =   3.5893618158746E+00
(PID.TID 0000.0001) %MON dynstat_theta_sd             =   4.3404489243658E+00
(PID.TID 0000.0001) %MON dynstat_theta_del2           =   1.3720156822428E-01
(PID.TID 0000.0001) %MON dynstat_salt_max             =   3.7390251989704E+01
(PID.TID 0000.0001) %MON dynstat_salt_min             =   2.9871397322910E+01
(PID.TID 0000.0001) %MON dynstat_salt_mean            =   3.4716000754678E+01
(PID.TID 0000.0001) %MON dynstat_salt_sd              =   2.9559597780259E-01
(PID.TID 0000.0001) %MON dynstat_salt_del2            =   2.5539155746610E-02
(PID.TID 0000.0001) %MON dynstat_sst_max              =   2.9502767803699E+01
(PID.TID 0000.0001) %MON dynstat_sst_min              =  -1.9369868449032E+00
(PID.TID 0000.0001) %MON dynstat_sst_mean             =   1.8630470607372E+01
(PID.TID 0000.0001) %MON dynstat_sst_sd               =   8.8903737948390E+00
(PID.TID 0000.0001) %MON dynstat_sst_del2             =   2.7080580865677E-01
(PID.TID 0000.0001) %MON dynstat_sss_max              =   3.7390250484552E+01
(PID.TID 0000.0001) %MON dynstat_sss_min              =   2.9871397322910E+01
(PID.TID 0000.0001) %MON dynstat_sss_mean             =   3.4844678963856E+01
(PID.TID 0000.0001) %MON dynstat_sss_sd               =   9.6093090562658E-01
(PID.TID 0000.0001) %MON dynstat_sss_del2             =   7.9938945011272E-02
(PID.TID 0000.0001) %MON extforcing_qnet_max          =   3.7523188273112E+02
(PID.TID 0000.0001) %MON extforcing_qnet_min          =  -1.7522916158040E+02
(PID.TID 0000.0001) %MON extforcing_qnet_mean         =  -1.4814342652977E+01
(PID.TID 0000.0001) %MON extforcing_qnet_sd           =   8.9107408305075E+01
(PID.TID 0000.0001) %MON extforcing_qnet_del2         =   8.8165780882727E+00
(PID.TID 0000.0001) %MON extforcing_qsw_max           =   0.0000000000000E+00
(PID.TID 0000.0001) %MON extforcing_qsw_min           =   0.0000000000000E+00
(PID.TID 0000.0001) %MON extforcing_qsw_mean          =   0.0000000000000E+00
(PID.TID 0000.0001) %MON extforcing_qsw_sd            =   0.0000000000000E+00
(PID.TID 0000.0001) %MON extforcing_qsw_del2          =   0.0000000000000E+00
(PID.TID 0000.0001) %MON extforcing_empmr_max         =   0.0000000000000E+00
(PID.TID 0000.0001) %MON extforcing_empmr_min         =   0.0000000000000E+00
(PID.TID 0000.0001) %MON extforcing_empmr_mean        =   0.0000000000000E+00
(PID.TID 0000.0001) %MON extforcing_empmr_sd          =   0.0000000000000E+00
(PID.TID 0000.0001) %MON extforcing_empmr_del2        =   0.0000000000000E+00
(PID.TID 0000.0001) %MON extforcing_fu_max            =   2.9076394438744E-01
(PID.TID 0000.0001) %MON extforcing_fu_min            =  -1.9913311302662E-01
(PID.TID 0000.0001) %MON extforcing_fu_mean           =   1.7087739461946E-02
(PID.TID 0000.0001) %MON extforcing_fu_sd             =   9.0639654675392E-02
(PID.TID 0000.0001) %MON extforcing_fu_del2           =   7.4954349704995E-03
(PID.TID 0000.0001) %MON extforcing_fv_max            =   1.8370781838894E-01
(PID.TID 0000.0001) %MON extforcing_fv_min            =  -1.6796026627223E-01
(PID.TID 0000.0001) %MON extforcing_fv_mean           =  -6.5641158738086E-03
(PID.TID 0000.0001) %MON extforcing_fv_sd             =   4.4559893516707E-02
(PID.TID 0000.0001) %MON extforcing_fv_del2           =   4.5047131381847E-03
(PID.TID 0000.0001) %MON advcfl_uvel_max              =   2.6753853859967E-02
(PID.TID 0000.0001) %MON advcfl_vvel_max              =   1.5268466683959E-02
(PID.TID 0000.0001) %MON advcfl_wvel_max              =   1.4951683410383E-01
(PID.TID 0000.0001) %MON advcfl_W_hf_max              =   1.2211953885750E-01
(PID.TID 0000.0001) %MON pe_b_mean                    =   2.5969270601052E-04
(PID.TID 0000.0001) %MON ke_max                       =   1.8951930559899E-02
(PID.TID 0000.0001) %MON ke_mean                      =   2.3672923257325E-04
(PID.TID 0000.0001) %MON ke_vol                       =   1.3226782436723E+18
(PID.TID 0000.0001) %MON vort_r_min                   =  -4.8482941105167E-07
(PID.TID 0000.0001) %MON vort_r_max                   =   4.2895999256022E-07
(PID.TID 0000.0001) %MON vort_a_mean                  =  -2.5205769043806E-05
(PID.TID 0000.0001) %MON vort_a_sd                    =   7.3403459219764E-05
(PID.TID 0000.0001) %MON vort_p_mean                  =  -3.1758669116940E-05
(PID.TID 0000.0001) %MON vort_p_sd                    =   1.3126473772501E-04
(PID.TID 0000.0001) %MON surfExpan_theta_mean         =   3.8173091987247E-06
(PID.TID 0000.0001) %MON surfExpan_salt_mean          =   5.0036071588946E-07
(PID.TID 0000.0001) // =======================================================
(PID.TID 0000.0001) // End MONITOR dynamic field statistics
(PID.TID 0000.0001) // =======================================================
time,SST,SSS,fu,fv,Q,E-P,i0,i1,a,b =   3.0672E+06 -5.9934E-02  3.4514E+01 -2.1147E-02 -3.0182E-02  2.4849E+02  0.0000E+00     1     2  6.8333E-01  3.1667E-01
time,fu0,fu1,fu =   3.0672E+06 -3.5633E-02 -1.4435E-02 -2.1147E-02  6.833333333333333E-01  3.166666666666667E-01
 cg2d: Sum(rhs),rhsMax =   3.50644513424925E-12  8.00388417689159E+00
(PID.TID 0000.0001)                    cg2d_init_res =    5.38372444349029E-01
(PID.TID 0000.0001)                       cg2d_iters =    24
(PID.TID 0000.0001)                         cg2d_res =    4.31012561976806E-14
(PID.TID 0000.0001) // =======================================================
(PID.TID 0000.0001) // Begin MONITOR dynamic field statistics
(PID.TID 0000.0001) // =======================================================
(PID.TID 0000.0001) %MON time_tsnumber                =                    72
(PID.TID 0000.0001) %MON time_secondsf                =   3.1104000000000E+06
(PID.TID 0000.0001) %MON dynstat_eta_max              =   8.6377407328697E-01
(PID.TID 0000.0001) %MON dynstat_eta_min              =  -1.3413092102187E+00
(PID.TID 0000.0001) %MON dynstat_eta_mean             =  -1.5321236607281E-15
(PID.TID 0000.0001) %MON dynstat_eta_sd               =   4.5057460715839E-01
(PID.TID 0000.0001) %MON dynstat_eta_del2             =   2.4743542098420E-02
(PID.TID 0000.0001) %MON dynstat_uvel_max             =   1.9272010369561E-01
(PID.TID 0000.0001) %MON dynstat_uvel_min             =  -1.4970620574779E-01
(PID.TID 0000.0001) %MON dynstat_uvel_mean            =   7.5141098871052E-04
(PID.TID 0000.0001) %MON dynstat_uvel_sd              =   1.7511206485405E-02
(PID.TID 0000.0001) %MON dynstat_uvel_del2            =   3.5870293059426E-03
(PID.TID 0000.0001) %MON dynstat_vvel_max             =   1.5959080491490E-01
(PID.TID 0000.0001) %MON dynstat_vvel_min             =  -1.2186785086886E-01
(PID.TID 0000.0001) %MON dynstat_vvel_mean            =  -1.5937778476229E-03
(PID.TID 0000.0001) %MON dynstat_vvel_sd              =   1.4485457402832E-02
(PID.TID 0000.0001) %MON dynstat_vvel_del2            =   3.5334082791041E-03
(PID.TID 0000.0001) %MON dynstat_wvel_max             =   1.9452589087534E-04
(PID.TID 0000.0001) %MON dynstat_wvel_min             =  -1.7410946988940E-04
(PID.TID 0000.0001) %MON dynstat_wvel_mean            =   6.6939115742547E-22
(PID.TID 0000.0001) %MON dynstat_wvel_sd              =   2.1284912958089E-05
(PID.TID 0000.0001) %MON dynstat_wvel_del2            =   7.1396079309069E-06
(PID.TID 0000.0001) %MON dynstat_theta_max            =   2.9504323128202E+01
(PID.TID 0000.0001) %MON dynstat_theta_min            =  -2.0308075667279E+00
(PID.TID 0000.0001) %MON dynstat_theta_mean           =   3.5893593300135E+00
(PID.TID 0000.0001) %MON dynstat_theta_sd             =   4.3406021119229E+00
(PID.TID 0000.0001) %MON dynstat_theta_del2           =   1.3726642474633E-01
(PID.TID 0000.0001) %MON dynstat_salt_max             =   3.7389917582634E+01
(PID.TID 0000.0001) %MON dynstat_salt_min             =   2.9873053140097E+01
(PID.TID 0000.0001) %MON dynstat_salt_mean            =   3.4715995129733E+01
(PID.TID 0000.0001) %MON dynstat_salt_sd              =   2.9559659963722E-01
(PID.TID 0000.0001) %MON dynstat_salt_del2            =   2.5540742389955E-02
(PID.TID 0000.0001) %MON dynstat_sst_max              =   2.9504323128202E+01
(PID.TID 0000.0001) %MON dynstat_sst_min              =  -1.9356895009582E+00
(PID.TID 0000.0001) %MON dynstat_sst_mean             =   1.8632572204251E+01
(PID.TID 0000.0001) %MON dynstat_sst_sd               =   8.8928217738886E+00
(PID.TID 0000.0001) %MON dynstat_sst_del2             =   2.7069994008588E-01
(PID.TID 0000.0001) %MON dynstat_sss_max              =   3.7389916004692E+01
(PID.TID 0000.0001) %MON dynstat_sss_min              =   2.9873053140097E+01
(PID.TID 0000.0001) %MON dynstat_sss_mean             =   3.4844486820531E+01
(PID.TID 0000.0001) %MON dynstat_sss_sd               =   9.6072639801978E-01
(PID.TID 0000.0001) %MON dynstat_sss_del2             =   7.9902665023135E-02
(PID.TID 0000.0001) %MON extforcing_qnet_max          =   3.7357233937581E+02
(PID.TID 0000.0001) %MON extforcing_qnet_min          =  -1.7510940195719E+02
(PID.TID 0000.0001) %MON extforcing_qnet_mean         =  -1.4771888069275E+01
(PID.TID 0000.0001) %MON extforcing_qnet_sd           =   8.8615018227076E+01
(PID.TID 0000.0001) %MON extforcing_qnet_del2         =   8.8013314142142E+00
(PID.TID 0000.0001) %MON extforcing_qsw_max           =   0.0000000000000E+00
(PID.TID 0000.0001) %MON extforcing_qsw_min           =   0.0000000000000E+00
(PID.TID 0000.0001) %MON extforcing_qsw_mean          =   0.0000000000000E+00
(PID.TID 0000.0001) %MON extforcing_qsw_sd            =   0.0000000000000E+00
(PID.TID 0000.0001) %MON extforcing_qsw_del2          =   0.0000000000000E+00
(PID.TID 0000.0001) %MON extforcing_empmr_max         =   0.0000000000000E+00
(PID.TID 0000.0001) %MON extforcing_empmr_min         =   0.0000000000000E+00
(PID.TID 0000.0001) %MON extforcing_empmr_mean        =   0.0000000000000E+00
(PID.TID 0000.0001) %MON extforcing_empmr_sd          =   0.0000000000000E+00
(PID.TID 0000.0001) %MON extforcing_empmr_del2        =   0.0000000000000E+00
(PID.TID 0000.0001) %MON extforcing_fu_max            =   2.9145752340555E-01
(PID.TID 0000.0001) %MON extforcing_fu_min            =  -1.9996307492256E-01
(PID.TID 0000.0001) %MON extforcing_fu_mean           =   1.7114889569680E-02
(PID.TID 0000.0001) %MON extforcing_fu_sd             =   9.0718465410251E-02
(PID.TID 0000.0001) %MON extforcing_fu_del2           =   7.5140591285685E-03
(PID.TID 0000.0001) %MON extforcing_fv_max            =   1.8315705806017E-01
(PID.TID 0000.0001) %MON extforcing_fv_min            =  -1.6954621573289E-01
(PID.TID 0000.0001) %MON extforcing_fv_mean           =  -6.5967463271662E-03
(PID.TID 0000.0001) %MON extforcing_fv_sd             =   4.4546378574191E-02
(PID.TID 0000.0001) %MON extforcing_fv_del2           =   4.5246867484498E-03
(PID.TID 0000.0001) %MON advcfl_uvel_max              =   2.6813633944907E-02
(PID.TID 0000.0001) %MON advcfl_vvel_max              =   1.5502966933088E-02
(PID.TID 0000.0001) %MON advcfl_wvel_max              =   1.4792785963200E-01
(PID.TID 0000.0001) %MON advcfl_W_hf_max              =   1.3654513100182E-01
(PID.TID 0000.0001) %MON pe_b_mean                    =   2.5978533160124E-04
(PID.TID 0000.0001) %MON ke_max                       =   1.9150768990298E-02
(PID.TID 0000.0001) %MON ke_mean                      =   2.3491035237792E-04
(PID.TID 0000.0001) %MON ke_vol                       =   1.3226782436723E+18
(PID.TID 0000.0001) %MON vort_r_min                   =  -4.8730810022782E-07
(PID.TID 0000.0001) %MON vort_r_max                   =   4.2972814281415E-07
(PID.TID 0000.0001) %MON vort_a_mean                  =  -2.5205769035980E-05
(PID.TID 0000.0001) %MON vort_a_sd                    =   7.3403484178064E-05
(PID.TID 0000.0001) %MON vort_p_mean                  =  -3.1758669107080E-05
(PID.TID 0000.0001) %MON vort_p_sd                    =   1.3126474446718E-04
(PID.TID 0000.0001) %MON surfExpan_theta_mean         =   3.4359357118428E-06
(PID.TID 0000.0001) %MON surfExpan_salt_mean          =   5.0722115343491E-07
(PID.TID 0000.0001) // =======================================================
(PID.TID 0000.0001) // End MONITOR dynamic field statistics
(PID.TID 0000.0001) // =======================================================
time,SST,SSS,fu,fv,Q,E-P,i0,i1,a,b =   3.1104E+06 -8.4772E-02  3.4509E+01 -2.0794E-02 -2.9522E-02  2.4807E+02  0.0000E+00     1     2  7.0000E-01  3.0000E-01
time,fu0,fu1,fu =   3.1104E+06 -3.5633E-02 -1.4435E-02 -2.0794E-02  7.000000000000000E-01  3.000000000000000E-01
 cg2d: Sum(rhs),rhsMax =   3.09095804507109E-12  8.02911791318484E+00
(PID.TID 0000.0001)                    cg2d_init_res =    5.30399869368523E-01
(PID.TID 0000.0001)                       cg2d_iters =    24
(PID.TID 0000.0001)                         cg2d_res =    8.10390224737058E-14
(PID.TID 0000.0001) // =======================================================
(PID.TID 0000.0001) // Begin MONITOR dynamic field statistics
(PID.TID 0000.0001) // =======================================================
(PID.TID 0000.0001) %MON time_tsnumber                =                    73
(PID.TID 0000.0001) %MON time_secondsf                =   3.1536000000000E+06
(PID.TID 0000.0001) %MON dynstat_eta_max              =   8.7981271172078E-01
(PID.TID 0000.0001) %MON dynstat_eta_min              =  -1.3520990316139E+00
(PID.TID 0000.0001) %MON dynstat_eta_mean             =  -1.5327321348390E-15
(PID.TID 0000.0001) %MON dynstat_eta_sd               =   4.5074290118215E-01
(PID.TID 0000.0001) %MON dynstat_eta_del2             =   2.4802862969751E-02
(PID.TID 0000.0001) %MON dynstat_uvel_max             =   1.9869528932345E-01
(PID.TID 0000.0001) %MON dynstat_uvel_min             =  -1.4928827232438E-01
(PID.TID 0000.0001) %MON dynstat_uvel_mean            =   8.8339329698558E-04
(PID.TID 0000.0001) %MON dynstat_uvel_sd              =   1.7351269118308E-02
(PID.TID 0000.0001) %MON dynstat_uvel_del2            =   3.5672658822221E-03
(PID.TID 0000.0001) %MON dynstat_vvel_max             =   1.6112581893989E-01
(PID.TID 0000.0001) %MON dynstat_vvel_min             =  -1.1903994359582E-01
(PID.TID 0000.0001) %MON dynstat_vvel_mean            =  -1.5184770170291E-03
(PID.TID 0000.0001) %MON dynstat_vvel_sd              =   1.4493445140363E-02
(PID.TID 0000.0001) %MON dynstat_vvel_del2            =   3.5310624021461E-03
(PID.TID 0000.0001) %MON dynstat_wvel_max             =   1.9576955404160E-04
(PID.TID 0000.0001) %MON dynstat_wvel_min             =  -1.6520411446941E-04
(PID.TID 0000.0001) %MON dynstat_wvel_mean            =  -2.7132086078625E-22
(PID.TID 0000.0001) %MON dynstat_wvel_sd              =   2.1110047330334E-05
(PID.TID 0000.0001) %MON dynstat_wvel_del2            =   7.0648842800223E-06
(PID.TID 0000.0001) %MON dynstat_theta_max            =   2.9507526576602E+01
(PID.TID 0000.0001) %MON dynstat_theta_min            =  -2.0311027950989E+00
(PID.TID 0000.0001) %MON dynstat_theta_mean           =   3.5893602280869E+00
(PID.TID 0000.0001) %MON dynstat_theta_sd             =   4.3407675920431E+00
(PID.TID 0000.0001) %MON dynstat_theta_del2           =   1.3736505657578E-01
(PID.TID 0000.0001) %MON dynstat_salt_max             =   3.7389673060944E+01
(PID.TID 0000.0001) %MON dynstat_salt_min             =   2.9874647711677E+01
(PID.TID 0000.0001) %MON dynstat_salt_mean            =   3.4715989565033E+01
(PID.TID 0000.0001) %MON dynstat_salt_sd              =   2.9559216451901E-01
(PID.TID 0000.0001) %MON dynstat_salt_del2            =   2.5548134858181E-02
(PID.TID 0000.0001) %MON dynstat_sst_max              =   2.9507526576602E+01
(PID.TID 0000.0001) %MON dynstat_sst_min              =  -1.9344311133290E+00
(PID.TID 0000.0001) %MON dynstat_sst_mean             =   1.8634644263515E+01
(PID.TID 0000.0001) %MON dynstat_sst_sd               =   8.8952715718811E+00
(PID.TID 0000.0001) %MON dynstat_sst_del2             =   2.7053636829136E-01
(PID.TID 0000.0001) %MON dynstat_sss_max              =   3.7389671416170E+01
(PID.TID 0000.0001) %MON dynstat_sss_min              =   2.9874647711677E+01
(PID.TID 0000.0001) %MON dynstat_sss_mean             =   3.4844299378888E+01
(PID.TID 0000.0001) %MON dynstat_sss_sd               =   9.6057878920752E-01
(PID.TID 0000.0001) %MON dynstat_sss_del2             =   7.9882532557531E-02
(PID.TID 0000.0001) %MON extforcing_qnet_max          =   3.7191279602051E+02
(PID.TID 0000.0001) %MON extforcing_qnet_min          =  -1.7498964233398E+02
(PID.TID 0000.0001) %MON extforcing_qnet_mean         =  -1.4729433485573E+01
(PID.TID 0000.0001) %MON extforcing_qnet_sd           =   8.8124246964212E+01
(PID.TID 0000.0001) %MON extforcing_qnet_del2         =   8.7866073098354E+00
(PID.TID 0000.0001) %MON extforcing_qsw_max           =   0.0000000000000E+00
(PID.TID 0000.0001) %MON extforcing_qsw_min           =   0.0000000000000E+00
(PID.TID 0000.0001) %MON extforcing_qsw_mean          =   0.0000000000000E+00
(PID.TID 0000.0001) %MON extforcing_qsw_sd            =   0.0000000000000E+00
(PID.TID 0000.0001) %MON extforcing_qsw_del2          =   0.0000000000000E+00
(PID.TID 0000.0001) %MON extforcing_empmr_max         =   0.0000000000000E+00
(PID.TID 0000.0001) %MON extforcing_empmr_min         =   0.0000000000000E+00
(PID.TID 0000.0001) %MON extforcing_empmr_mean        =   0.0000000000000E+00
(PID.TID 0000.0001) %MON extforcing_empmr_sd          =   0.0000000000000E+00
(PID.TID 0000.0001) %MON extforcing_empmr_del2        =   0.0000000000000E+00
(PID.TID 0000.0001) %MON extforcing_fu_max            =   2.9215110242367E-01
(PID.TID 0000.0001) %MON extforcing_fu_min            =  -2.0079303681850E-01
(PID.TID 0000.0001) %MON extforcing_fu_mean           =   1.7142039677415E-02
(PID.TID 0000.0001) %MON extforcing_fu_sd             =   9.0801562846002E-02
(PID.TID 0000.0001) %MON extforcing_fu_del2           =   7.5340148617231E-03
(PID.TID 0000.0001) %MON extforcing_fv_max            =   1.8260629773140E-01
(PID.TID 0000.0001) %MON extforcing_fv_min            =  -1.7113216519356E-01
(PID.TID 0000.0001) %MON extforcing_fv_mean           =  -6.6293767805238E-03
(PID.TID 0000.0001) %MON extforcing_fv_sd             =   4.4536887248365E-02
(PID.TID 0000.0001) %MON extforcing_fv_del2           =   4.5468020965694E-03
(PID.TID 0000.0001) %MON advcfl_uvel_max              =   2.6685492326182E-02
(PID.TID 0000.0001) %MON advcfl_vvel_max              =   1.5652081236283E-02
(PID.TID 0000.0001) %MON advcfl_wvel_max              =   1.6222391968603E-01
(PID.TID 0000.0001) %MON advcfl_W_hf_max              =   1.4999990656019E-01
(PID.TID 0000.0001) %MON pe_b_mean                    =   2.5997943256946E-04
(PID.TID 0000.0001) %MON ke_max                       =   1.9393514793227E-02
(PID.TID 0000.0001) %MON ke_mean                      =   2.3247390904076E-04
(PID.TID 0000.0001) %MON ke_vol                       =   1.3226782436723E+18
(PID.TID 0000.0001) %MON vort_r_min                   =  -4.8983565380911E-07
(PID.TID 0000.0001) %MON vort_r_max                   =   4.2800046029782E-07
(PID.TID 0000.0001) %MON vort_a_mean                  =  -2.5205769031421E-05
(PID.TID 0000.0001) %MON vort_a_sd                    =   7.3403508027095E-05
(PID.TID 0000.0001) %MON vort_p_mean                  =  -3.1758669101336E-05
(PID.TID 0000.0001) %MON vort_p_sd                    =   1.3126474900026E-04
(PID.TID 0000.0001) %MON surfExpan_theta_mean         =   3.1953769296909E-06
(PID.TID 0000.0001) %MON surfExpan_salt_mean          =   4.9641675274435E-07
(PID.TID 0000.0001) // =======================================================
(PID.TID 0000.0001) // End MONITOR dynamic field statistics
(PID.TID 0000.0001) // =======================================================
time,SST,SSS,fu,fv,Q,E-P,i0,i1,a,b =   3.1536E+06 -1.0961E-01  3.4504E+01 -2.0441E-02 -2.8862E-02  2.4765E+02  0.0000E+00     1     2  7.1667E-01  2.8333E-01
time,fu0,fu1,fu =   3.1536E+06 -3.5633E-02 -1.4435E-02 -2.0441E-02  7.166666666666667E-01  2.833333333333333E-01
 cg2d: Sum(rhs),rhsMax =   3.06390329773976E-12  8.49105103448685E+00
(PID.TID 0000.0001)                    cg2d_init_res =    4.89694199800942E-01
(PID.TID 0000.0001)                       cg2d_iters =    24
(PID.TID 0000.0001)                         cg2d_res =    7.78500838352588E-14
(PID.TID 0000.0001) // =======================================================
(PID.TID 0000.0001) // Begin MONITOR dynamic field statistics
(PID.TID 0000.0001) // =======================================================
(PID.TID 0000.0001) %MON time_tsnumber                =                    74
(PID.TID 0000.0001) %MON time_secondsf                =   3.1968000000000E+06
(PID.TID 0000.0001) %MON dynstat_eta_max              =   9.3474849756286E-01
(PID.TID 0000.0001) %MON dynstat_eta_min              =  -1.3605083727400E+00
(PID.TID 0000.0001) %MON dynstat_eta_mean             =  -1.3715713988103E-15
(PID.TID 0000.0001) %MON dynstat_eta_sd               =   4.5101173607763E-01
(PID.TID 0000.0001) %MON dynstat_eta_del2             =   2.4894342169417E-02
(PID.TID 0000.0001) %MON dynstat_uvel_max             =   2.0330017955914E-01
(PID.TID 0000.0001) %MON dynstat_uvel_min             =  -1.4864598485871E-01
(PID.TID 0000.0001) %MON dynstat_uvel_mean            =   1.0081133809090E-03
(PID.TID 0000.0001) %MON dynstat_uvel_sd              =   1.7157446484250E-02
(PID.TID 0000.0001) %MON dynstat_uvel_del2            =   3.5449649731091E-03
(PID.TID 0000.0001) %MON dynstat_vvel_max             =   1.6176560600237E-01
(PID.TID 0000.0001) %MON dynstat_vvel_min             =  -1.1787082110006E-01
(PID.TID 0000.0001) %MON dynstat_vvel_mean            =  -1.4388546238666E-03
(PID.TID 0000.0001) %MON dynstat_vvel_sd              =   1.4496441523288E-02
(PID.TID 0000.0001) %MON dynstat_vvel_del2            =   3.5231244073531E-03
(PID.TID 0000.0001) %MON dynstat_wvel_max             =   1.9624075207069E-04
(PID.TID 0000.0001) %MON dynstat_wvel_min             =  -1.5600758436683E-04
(PID.TID 0000.0001) %MON dynstat_wvel_mean            =  -7.9040636255763E-23
(PID.TID 0000.0001) %MON dynstat_wvel_sd              =   2.0886719106887E-05
(PID.TID 0000.0001) %MON dynstat_wvel_del2            =   6.9764468271558E-06
(PID.TID 0000.0001) %MON dynstat_theta_max            =   2.9512358447833E+01
(PID.TID 0000.0001) %MON dynstat_theta_min            =  -2.0313498938268E+00
(PID.TID 0000.0001) %MON dynstat_theta_mean           =   3.5893628248280E+00
(PID.TID 0000.0001) %MON dynstat_theta_sd             =   4.3409398726531E+00
(PID.TID 0000.0001) %MON dynstat_theta_del2           =   1.3753397761623E-01
(PID.TID 0000.0001) %MON dynstat_salt_max             =   3.7389508945241E+01
(PID.TID 0000.0001) %MON dynstat_salt_min             =   2.9876160594794E+01
(PID.TID 0000.0001) %MON dynstat_salt_mean            =   3.4715984248164E+01
(PID.TID 0000.0001) %MON dynstat_salt_sd              =   2.9558295313744E-01
(PID.TID 0000.0001) %MON dynstat_salt_del2            =   2.5564912178443E-02
(PID.TID 0000.0001) %MON dynstat_sst_max              =   2.9512358447833E+01
(PID.TID 0000.0001) %MON dynstat_sst_min              =  -1.9332182331998E+00
(PID.TID 0000.0001) %MON dynstat_sst_mean             =   1.8636186486379E+01
(PID.TID 0000.0001) %MON dynstat_sst_sd               =   8.8979838191695E+00
(PID.TID 0000.0001) %MON dynstat_sst_del2             =   2.7059061841516E-01
(PID.TID 0000.0001) %MON dynstat_sss_max              =   3.7389507241896E+01
(PID.TID 0000.0001) %MON dynstat_sss_min              =   2.9876160594794E+01
(PID.TID 0000.0001) %MON dynstat_sss_mean             =   3.4843989356405E+01
(PID.TID 0000.0001) %MON dynstat_sss_sd               =   9.6026727286976E-01
(PID.TID 0000.0001) %MON dynstat_sss_del2             =   7.9901364427629E-02
(PID.TID 0000.0001) %MON extforcing_qnet_max          =   3.7025325266520E+02
(PID.TID 0000.0001) %MON extforcing_qnet_min          =  -1.7486988271077E+02
(PID.TID 0000.0001) %MON extforcing_qnet_mean         =  -1.4686978901872E+01
(PID.TID 0000.0001) %MON extforcing_qnet_sd           =   8.7635121713388E+01
(PID.TID 0000.0001) %MON extforcing_qnet_del2         =   8.7720823687977E+00
(PID.TID 0000.0001) %MON extforcing_qsw_max           =   0.0000000000000E+00
(PID.TID 0000.0001) %MON extforcing_qsw_min           =   0.0000000000000E+00
(PID.TID 0000.0001) %MON extforcing_qsw_mean          =   0.0000000000000E+00
(PID.TID 0000.0001) %MON extforcing_qsw_sd            =   0.0000000000000E+00
(PID.TID 0000.0001) %MON extforcing_qsw_del2          =   0.0000000000000E+00
(PID.TID 0000.0001) %MON extforcing_empmr_max         =   0.0000000000000E+00
(PID.TID 0000.0001) %MON extforcing_empmr_min         =   0.0000000000000E+00
(PID.TID 0000.0001) %MON extforcing_empmr_mean        =   0.0000000000000E+00
(PID.TID 0000.0001) %MON extforcing_empmr_sd          =   0.0000000000000E+00
(PID.TID 0000.0001) %MON extforcing_empmr_del2        =   0.0000000000000E+00
(PID.TID 0000.0001) %MON extforcing_fu_max            =   2.9284468144178E-01
(PID.TID 0000.0001) %MON extforcing_fu_min            =  -2.0162299871445E-01
(PID.TID 0000.0001) %MON extforcing_fu_mean           =   1.7169189785149E-02
(PID.TID 0000.0001) %MON extforcing_fu_sd             =   9.0888935224983E-02
(PID.TID 0000.0001) %MON extforcing_fu_del2           =   7.5549834831198E-03
(PID.TID 0000.0001) %MON extforcing_fv_max            =   1.8363326316079E-01
(PID.TID 0000.0001) %MON extforcing_fv_min            =  -1.7271811465422E-01
(PID.TID 0000.0001) %MON extforcing_fv_mean           =  -6.6620072338814E-03
(PID.TID 0000.0001) %MON extforcing_fv_sd             =   4.4531422111981E-02
(PID.TID 0000.0001) %MON extforcing_fv_del2           =   4.5704576616324E-03
(PID.TID 0000.0001) %MON advcfl_uvel_max              =   2.6574876788040E-02
(PID.TID 0000.0001) %MON advcfl_vvel_max              =   1.5714231418928E-02
(PID.TID 0000.0001) %MON advcfl_wvel_max              =   1.7113241320560E-01
(PID.TID 0000.0001) %MON advcfl_W_hf_max              =   1.5824976990024E-01
(PID.TID 0000.0001) %MON pe_b_mean                    =   2.6028964216334E-04
(PID.TID 0000.0001) %MON ke_max                       =   2.0362843977960E-02
(PID.TID 0000.0001) %MON ke_mean                      =   2.2947565207345E-04
(PID.TID 0000.0001) %MON ke_vol                       =   1.3226782436723E+18
(PID.TID 0000.0001) %MON vort_r_min                   =  -4.9213582821264E-07
(PID.TID 0000.0001) %MON vort_r_max                   =   4.2379663057539E-07
(PID.TID 0000.0001) %MON vort_a_mean                  =  -2.5205769030244E-05
(PID.TID 0000.0001) %MON vort_a_sd                    =   7.3403530618653E-05
(PID.TID 0000.0001) %MON vort_p_mean                  =  -3.1758669099852E-05
(PID.TID 0000.0001) %MON vort_p_sd                    =   1.3126475096717E-04
(PID.TID 0000.0001) %MON surfExpan_theta_mean         =   3.1046018621685E-06
(PID.TID 0000.0001) %MON surfExpan_salt_mean          =   4.7036112706877E-07
(PID.TID 0000.0001) // =======================================================
(PID.TID 0000.0001) // End MONITOR dynamic field statistics
(PID.TID 0000.0001) // =======================================================
time,SST,SSS,fu,fv,Q,E-P,i0,i1,a,b =   3.1968E+06 -1.3445E-01  3.4499E+01 -2.0088E-02 -2.8201E-02  2.4722E+02  0.0000E+00     1     2  7.3333E-01  2.6667E-01
time,fu0,fu1,fu =   3.1968E+06 -3.5633E-02 -1.4435E-02 -2.0088E-02  7.333333333333333E-01  2.666666666666667E-01
 cg2d: Sum(rhs),rhsMax =   2.72881717222617E-12  8.90375443856866E+00
(PID.TID 0000.0001)                    cg2d_init_res =    4.50800271538069E-01
(PID.TID 0000.0001)                       cg2d_iters =    24
(PID.TID 0000.0001)                         cg2d_res =    7.23895320667286E-14
(PID.TID 0000.0001) // =======================================================
(PID.TID 0000.0001) // Begin MONITOR dynamic field statistics
(PID.TID 0000.0001) // =======================================================
(PID.TID 0000.0001) %MON time_tsnumber                =                    75
(PID.TID 0000.0001) %MON time_secondsf                =   3.2400000000000E+06
(PID.TID 0000.0001) %MON dynstat_eta_max              =   9.7990581438531E-01
(PID.TID 0000.0001) %MON dynstat_eta_min              =  -1.3662918636777E+00
(PID.TID 0000.0001) %MON dynstat_eta_mean             =  -1.6976569200189E-15
(PID.TID 0000.0001) %MON dynstat_eta_sd               =   4.5138260297284E-01
(PID.TID 0000.0001) %MON dynstat_eta_del2             =   2.5045164653755E-02
(PID.TID 0000.0001) %MON dynstat_uvel_max             =   2.0648360968868E-01
(PID.TID 0000.0001) %MON dynstat_uvel_min             =  -1.4777682731533E-01
(PID.TID 0000.0001) %MON dynstat_uvel_mean            =   1.1246990708945E-03
(PID.TID 0000.0001) %MON dynstat_uvel_sd              =   1.6935271320741E-02
(PID.TID 0000.0001) %MON dynstat_uvel_del2            =   3.5197515064915E-03
(PID.TID 0000.0001) %MON dynstat_vvel_max             =   1.6150546491076E-01
(PID.TID 0000.0001) %MON dynstat_vvel_min             =  -1.1792769676699E-01
(PID.TID 0000.0001) %MON dynstat_vvel_mean            =  -1.3568715076918E-03
(PID.TID 0000.0001) %MON dynstat_vvel_sd              =   1.4492523387033E-02
(PID.TID 0000.0001) %MON dynstat_vvel_del2            =   3.5099178473426E-03
(PID.TID 0000.0001) %MON dynstat_wvel_max             =   1.9597181082297E-04
(PID.TID 0000.0001) %MON dynstat_wvel_min             =  -1.4670996419481E-04
(PID.TID 0000.0001) %MON dynstat_wvel_mean            =   4.6332584224214E-22
(PID.TID 0000.0001) %MON dynstat_wvel_sd              =   2.0621286815901E-05
(PID.TID 0000.0001) %MON dynstat_wvel_del2            =   6.8773057198177E-06
(PID.TID 0000.0001) %MON dynstat_theta_max            =   2.9518742009721E+01
(PID.TID 0000.0001) %MON dynstat_theta_min            =  -2.0315416683638E+00
(PID.TID 0000.0001) %MON dynstat_theta_mean           =   3.5893654624936E+00
(PID.TID 0000.0001) %MON dynstat_theta_sd             =   4.3411147673400E+00
(PID.TID 0000.0001) %MON dynstat_theta_del2           =   1.3767916553569E-01
(PID.TID 0000.0001) %MON dynstat_salt_max             =   3.7389413485824E+01
(PID.TID 0000.0001) %MON dynstat_salt_min             =   2.9877574096441E+01
(PID.TID 0000.0001) %MON dynstat_salt_mean            =   3.4715979341898E+01
(PID.TID 0000.0001) %MON dynstat_salt_sd              =   2.9557125990155E-01
(PID.TID 0000.0001) %MON dynstat_salt_del2            =   2.5567027843203E-02
(PID.TID 0000.0001) %MON dynstat_sst_max              =   2.9518742009721E+01
(PID.TID 0000.0001) %MON dynstat_sst_min              =  -1.9320773265107E+00
(PID.TID 0000.0001) %MON dynstat_sst_mean             =   1.8637543664039E+01
(PID.TID 0000.0001) %MON dynstat_sst_sd               =   8.9008883514434E+00
(PID.TID 0000.0001) %MON dynstat_sst_del2             =   2.7047878788338E-01
(PID.TID 0000.0001) %MON dynstat_sss_max              =   3.7389411733976E+01
(PID.TID 0000.0001) %MON dynstat_sss_min              =   2.9877574096441E+01
(PID.TID 0000.0001) %MON dynstat_sss_mean             =   3.4843675711497E+01
(PID.TID 0000.0001) %MON dynstat_sss_sd               =   9.6006261024840E-01
(PID.TID 0000.0001) %MON dynstat_sss_del2             =   7.9861971837359E-02
(PID.TID 0000.0001) %MON extforcing_qnet_max          =   3.6928591512044E+02
(PID.TID 0000.0001) %MON extforcing_qnet_min          =  -1.7475012308757E+02
(PID.TID 0000.0001) %MON extforcing_qnet_mean         =  -1.4644524318170E+01
(PID.TID 0000.0001) %MON extforcing_qnet_sd           =   8.7147670189845E+01
(PID.TID 0000.0001) %MON extforcing_qnet_del2         =   8.7577649036824E+00
(PID.TID 0000.0001) %MON extforcing_qsw_max           =   0.0000000000000E+00
(PID.TID 0000.0001) %MON extforcing_qsw_min           =   0.0000000000000E+00
(PID.TID 0000.0001) %MON extforcing_qsw_mean          =   0.0000000000000E+00
(PID.TID 0000.0001) %MON extforcing_qsw_sd            =   0.0000000000000E+00
(PID.TID 0000.0001) %MON extforcing_qsw_del2          =   0.0000000000000E+00
(PID.TID 0000.0001) %MON extforcing_empmr_max         =   0.0000000000000E+00
(PID.TID 0000.0001) %MON extforcing_empmr_min         =   0.0000000000000E+00
(PID.TID 0000.0001) %MON extforcing_empmr_mean        =   0.0000000000000E+00
(PID.TID 0000.0001) %MON extforcing_empmr_sd          =   0.0000000000000E+00
(PID.TID 0000.0001) %MON extforcing_empmr_del2        =   0.0000000000000E+00
(PID.TID 0000.0001) %MON extforcing_fu_max            =   2.9353826045990E-01
(PID.TID 0000.0001) %MON extforcing_fu_min            =  -2.0245296061039E-01
(PID.TID 0000.0001) %MON extforcing_fu_mean           =   1.7196339892884E-02
(PID.TID 0000.0001) %MON extforcing_fu_sd             =   9.0980570230984E-02
(PID.TID 0000.0001) %MON extforcing_fu_del2           =   7.5774465405765E-03
(PID.TID 0000.0001) %MON extforcing_fv_max            =   1.8468924562136E-01
(PID.TID 0000.0001) %MON extforcing_fv_min            =  -1.7430406411489E-01
(PID.TID 0000.0001) %MON extforcing_fv_mean           =  -6.6946376872389E-03
(PID.TID 0000.0001) %MON extforcing_fv_sd             =   4.4529984647436E-02
(PID.TID 0000.0001) %MON extforcing_fv_del2           =   4.5949004398314E-03
(PID.TID 0000.0001) %MON advcfl_uvel_max              =   2.6991006589987E-02
(PID.TID 0000.0001) %MON advcfl_vvel_max              =   1.5688960797958E-02
(PID.TID 0000.0001) %MON advcfl_wvel_max              =   1.7429730518316E-01
(PID.TID 0000.0001) %MON advcfl_W_hf_max              =   1.6118490401205E-01
(PID.TID 0000.0001) %MON pe_b_mean                    =   2.6071789044682E-04
(PID.TID 0000.0001) %MON ke_max                       =   2.1191529563231E-02
(PID.TID 0000.0001) %MON ke_mean                      =   2.2599349373170E-04
(PID.TID 0000.0001) %MON ke_vol                       =   1.3226782436723E+18
(PID.TID 0000.0001) %MON vort_r_min                   =  -4.9393073514935E-07
(PID.TID 0000.0001) %MON vort_r_max                   =   4.2131990800728E-07
(PID.TID 0000.0001) %MON vort_a_mean                  =  -2.5205769032229E-05
(PID.TID 0000.0001) %MON vort_a_sd                    =   7.3403551796834E-05
(PID.TID 0000.0001) %MON vort_p_mean                  =  -3.1758669102354E-05
(PID.TID 0000.0001) %MON vort_p_sd                    =   1.3126474992792E-04
(PID.TID 0000.0001) %MON surfExpan_theta_mean         =   3.1644862313869E-06
(PID.TID 0000.0001) %MON surfExpan_salt_mean          =   4.3091519407747E-07
(PID.TID 0000.0001) // =======================================================
(PID.TID 0000.0001) // End MONITOR dynamic field statistics
(PID.TID 0000.0001) // =======================================================
time,SST,SSS,fu,fv,Q,E-P,i0,i1,a,b =   3.2400E+06 -1.5929E-01  3.4494E+01 -1.9734E-02 -2.7541E-02  2.4680E+02  0.0000E+00     1     2  7.5000E-01  2.5000E-01
time,fu0,fu1,fu =   3.2400E+06 -3.5633E-02 -1.4435E-02 -1.9734E-02  7.500000000000000E-01  2.500000000000000E-01
 cg2d: Sum(rhs),rhsMax =   2.85418910728197E-12  9.21995752446141E+00
(PID.TID 0000.0001)                    cg2d_init_res =    4.16175835433374E-01
(PID.TID 0000.0001)                       cg2d_iters =    24
(PID.TID 0000.0001)                         cg2d_res =    6.74961020916847E-14
(PID.TID 0000.0001) // =======================================================
(PID.TID 0000.0001) // Begin MONITOR dynamic field statistics
(PID.TID 0000.0001) // =======================================================
(PID.TID 0000.0001) %MON time_tsnumber                =                    76
(PID.TID 0000.0001) %MON time_secondsf                =   3.2832000000000E+06
(PID.TID 0000.0001) %MON dynstat_eta_max              =   1.0158532016814E+00
(PID.TID 0000.0001) %MON dynstat_eta_min              =  -1.3693429154308E+00
(PID.TID 0000.0001) %MON dynstat_eta_mean             =  -1.4272892316414E-15
(PID.TID 0000.0001) %MON dynstat_eta_sd               =   4.5184833827209E-01
(PID.TID 0000.0001) %MON dynstat_eta_del2             =   2.5237631980872E-02
(PID.TID 0000.0001) %MON dynstat_uvel_max             =   2.0821536482350E-01
(PID.TID 0000.0001) %MON dynstat_uvel_min             =  -1.4668101590766E-01
(PID.TID 0000.0001) %MON dynstat_uvel_mean            =   1.2322687166843E-03
(PID.TID 0000.0001) %MON dynstat_uvel_sd              =   1.6690753364394E-02
(PID.TID 0000.0001) %MON dynstat_uvel_del2            =   3.4942868793146E-03
(PID.TID 0000.0001) %MON dynstat_vvel_max             =   1.6035240148539E-01
(PID.TID 0000.0001) %MON dynstat_vvel_min             =  -1.1782894217725E-01
(PID.TID 0000.0001) %MON dynstat_vvel_mean            =  -1.2742497803128E-03
(PID.TID 0000.0001) %MON dynstat_vvel_sd              =   1.4480722385029E-02
(PID.TID 0000.0001) %MON dynstat_vvel_del2            =   3.4911729314521E-03
(PID.TID 0000.0001) %MON dynstat_wvel_max             =   1.9500956671843E-04
(PID.TID 0000.0001) %MON dynstat_wvel_min             =  -1.3749940168841E-04
(PID.TID 0000.0001) %MON dynstat_wvel_mean            =   3.2295187419650E-23
(PID.TID 0000.0001) %MON dynstat_wvel_sd              =   2.0324521937750E-05
(PID.TID 0000.0001) %MON dynstat_wvel_del2            =   6.7794635854069E-06
(PID.TID 0000.0001) %MON dynstat_theta_max            =   2.9526898933137E+01
(PID.TID 0000.0001) %MON dynstat_theta_min            =  -2.0316707151365E+00
(PID.TID 0000.0001) %MON dynstat_theta_mean           =   3.5893664360107E+00
(PID.TID 0000.0001) %MON dynstat_theta_sd             =   4.3412862226222E+00
(PID.TID 0000.0001) %MON dynstat_theta_del2           =   1.3786477687904E-01
(PID.TID 0000.0001) %MON dynstat_salt_max             =   3.7389373413815E+01
(PID.TID 0000.0001) %MON dynstat_salt_min             =   2.9878874153310E+01
(PID.TID 0000.0001) %MON dynstat_salt_mean            =   3.4715974982106E+01
(PID.TID 0000.0001) %MON dynstat_salt_sd              =   2.9555715303868E-01
(PID.TID 0000.0001) %MON dynstat_salt_del2            =   2.5577149778385E-02
(PID.TID 0000.0001) %MON dynstat_sst_max              =   2.9526898933137E+01
(PID.TID 0000.0001) %MON dynstat_sst_min              =  -1.9310347072992E+00
(PID.TID 0000.0001) %MON dynstat_sst_mean             =   1.8638850509016E+01
(PID.TID 0000.0001) %MON dynstat_sst_sd               =   8.9037055214867E+00
(PID.TID 0000.0001) %MON dynstat_sst_del2             =   2.7046794585427E-01
(PID.TID 0000.0001) %MON dynstat_sss_max              =   3.7389371624805E+01
(PID.TID 0000.0001) %MON dynstat_sss_min              =   2.9878874153310E+01
(PID.TID 0000.0001) %MON dynstat_sss_mean             =   3.4843366102084E+01
(PID.TID 0000.0001) %MON dynstat_sss_sd               =   9.5985589857702E-01
(PID.TID 0000.0001) %MON dynstat_sss_del2             =   7.9855812405374E-02
(PID.TID 0000.0001) %MON extforcing_qnet_max          =   3.6860881042480E+02
(PID.TID 0000.0001) %MON extforcing_qnet_min          =  -1.7463036346436E+02
(PID.TID 0000.0001) %MON extforcing_qnet_mean         =  -1.4602069734469E+01
(PID.TID 0000.0001) %MON extforcing_qnet_sd           =   8.6661920636472E+01
(PID.TID 0000.0001) %MON extforcing_qnet_del2         =   8.7436674218665E+00
(PID.TID 0000.0001) %MON extforcing_qsw_max           =   0.0000000000000E+00
(PID.TID 0000.0001) %MON extforcing_qsw_min           =   0.0000000000000E+00
(PID.TID 0000.0001) %MON extforcing_qsw_mean          =   0.0000000000000E+00
(PID.TID 0000.0001) %MON extforcing_qsw_sd            =   0.0000000000000E+00
(PID.TID 0000.0001) %MON extforcing_qsw_del2          =   0.0000000000000E+00
(PID.TID 0000.0001) %MON extforcing_empmr_max         =   0.0000000000000E+00
(PID.TID 0000.0001) %MON extforcing_empmr_min         =   0.0000000000000E+00
(PID.TID 0000.0001) %MON extforcing_empmr_mean        =   0.0000000000000E+00
(PID.TID 0000.0001) %MON extforcing_empmr_sd          =   0.0000000000000E+00
(PID.TID 0000.0001) %MON extforcing_empmr_del2        =   0.0000000000000E+00
(PID.TID 0000.0001) %MON extforcing_fu_max            =   2.9423183947802E-01
(PID.TID 0000.0001) %MON extforcing_fu_min            =  -2.0328292250633E-01
(PID.TID 0000.0001) %MON extforcing_fu_mean           =   1.7223490000618E-02
(PID.TID 0000.0001) %MON extforcing_fu_sd             =   9.1076454997700E-02
(PID.TID 0000.0001) %MON extforcing_fu_del2           =   7.6012629026167E-03
(PID.TID 0000.0001) %MON extforcing_fv_max            =   1.8574522808194E-01
(PID.TID 0000.0001) %MON extforcing_fv_min            =  -1.7589001357555E-01
(PID.TID 0000.0001) %MON extforcing_fv_mean           =  -6.7272681405965E-03
(PID.TID 0000.0001) %MON extforcing_fv_sd             =   4.4532575244756E-02
(PID.TID 0000.0001) %MON extforcing_fv_del2           =   4.6203200589740E-03
(PID.TID 0000.0001) %MON advcfl_uvel_max              =   2.7217377168876E-02
(PID.TID 0000.0001) %MON advcfl_vvel_max              =   1.5576949932641E-02
(PID.TID 0000.0001) %MON advcfl_wvel_max              =   1.7182643960541E-01
(PID.TID 0000.0001) %MON advcfl_W_hf_max              =   1.5890485050717E-01
(PID.TID 0000.0001) %MON pe_b_mean                    =   2.6125618397956E-04
(PID.TID 0000.0001) %MON ke_max                       =   2.1857606575946E-02
(PID.TID 0000.0001) %MON ke_mean                      =   2.2212213037036E-04
(PID.TID 0000.0001) %MON ke_vol                       =   1.3226782436723E+18
(PID.TID 0000.0001) %MON vort_r_min                   =  -4.9495392346185E-07
(PID.TID 0000.0001) %MON vort_r_max                   =   4.3471501709339E-07
(PID.TID 0000.0001) %MON vort_a_mean                  =  -2.5205769036941E-05
(PID.TID 0000.0001) %MON vort_a_sd                    =   7.3403571398201E-05
(PID.TID 0000.0001) %MON vort_p_mean                  =  -3.1758669108291E-05
(PID.TID 0000.0001) %MON vort_p_sd                    =   1.3126474532610E-04
(PID.TID 0000.0001) %MON surfExpan_theta_mean         =   3.3749715141529E-06
(PID.TID 0000.0001) %MON surfExpan_salt_mean          =   3.8163395078778E-07
(PID.TID 0000.0001) // =======================================================
(PID.TID 0000.0001) // End MONITOR dynamic field statistics
(PID.TID 0000.0001) // =======================================================
time,SST,SSS,fu,fv,Q,E-P,i0,i1,a,b =   3.2832E+06 -1.8412E-01  3.4490E+01 -1.9381E-02 -2.6880E-02  2.4638E+02  0.0000E+00     1     2  7.6667E-01  2.3333E-01
time,fu0,fu1,fu =   3.2832E+06 -3.5633E-02 -1.4435E-02 -1.9381E-02  7.666666666666667E-01  2.333333333333333E-01
 cg2d: Sum(rhs),rhsMax =   2.65262811716127E-12  9.43408891658781E+00
(PID.TID 0000.0001)                    cg2d_init_res =    3.86107056083400E-01
(PID.TID 0000.0001)                       cg2d_iters =    24
(PID.TID 0000.0001)                         cg2d_res =    6.37734774634123E-14
(PID.TID 0000.0001) // =======================================================
(PID.TID 0000.0001) // Begin MONITOR dynamic field statistics
(PID.TID 0000.0001) // =======================================================
(PID.TID 0000.0001) %MON time_tsnumber                =                    77
(PID.TID 0000.0001) %MON time_secondsf                =   3.3264000000000E+06
(PID.TID 0000.0001) %MON dynstat_eta_max              =   1.0400904961747E+00
(PID.TID 0000.0001) %MON dynstat_eta_min              =  -1.3696846954157E+00
(PID.TID 0000.0001) %MON dynstat_eta_mean             =  -1.2555509514752E-15
(PID.TID 0000.0001) %MON dynstat_eta_sd               =   4.5239653625744E-01
(PID.TID 0000.0001) %MON dynstat_eta_del2             =   2.5433297592620E-02
(PID.TID 0000.0001) %MON dynstat_uvel_max             =   2.0869674573955E-01
(PID.TID 0000.0001) %MON dynstat_uvel_min             =  -1.4536159367057E-01
(PID.TID 0000.0001) %MON dynstat_uvel_mean            =   1.3299722292712E-03
(PID.TID 0000.0001) %MON dynstat_uvel_sd              =   1.6430041923970E-02
(PID.TID 0000.0001) %MON dynstat_uvel_del2            =   3.4677447638857E-03
(PID.TID 0000.0001) %MON dynstat_vvel_max             =   1.5832521062949E-01
(PID.TID 0000.0001) %MON dynstat_vvel_min             =  -1.1757994491677E-01
(PID.TID 0000.0001) %MON dynstat_vvel_mean            =  -1.1924503168487E-03
(PID.TID 0000.0001) %MON dynstat_vvel_sd              =   1.4461018536756E-02
(PID.TID 0000.0001) %MON dynstat_vvel_del2            =   3.4699619320615E-03
(PID.TID 0000.0001) %MON dynstat_wvel_max             =   1.9341394363714E-04
(PID.TID 0000.0001) %MON dynstat_wvel_min             =  -1.2855713519798E-04
(PID.TID 0000.0001) %MON dynstat_wvel_mean            =  -4.5763748536709E-22
(PID.TID 0000.0001) %MON dynstat_wvel_sd              =   2.0010185819741E-05
(PID.TID 0000.0001) %MON dynstat_wvel_del2            =   6.6931811698235E-06
(PID.TID 0000.0001) %MON dynstat_theta_max            =   2.9541682542572E+01
(PID.TID 0000.0001) %MON dynstat_theta_min            =  -2.0317298137446E+00
(PID.TID 0000.0001) %MON dynstat_theta_mean           =   3.5893640467455E+00
(PID.TID 0000.0001) %MON dynstat_theta_sd             =   4.3414493353125E+00
(PID.TID 0000.0001) %MON dynstat_theta_del2           =   1.3807258765611E-01
(PID.TID 0000.0001) %MON dynstat_salt_max             =   3.7389374648290E+01
(PID.TID 0000.0001) %MON dynstat_salt_min             =   2.9880051004202E+01
(PID.TID 0000.0001) %MON dynstat_salt_mean            =   3.4715971255279E+01
(PID.TID 0000.0001) %MON dynstat_salt_sd              =   2.9554102905117E-01
(PID.TID 0000.0001) %MON dynstat_salt_del2            =   2.5586243912839E-02
(PID.TID 0000.0001) %MON dynstat_sst_max              =   2.9541682542572E+01
(PID.TID 0000.0001) %MON dynstat_sst_min              =  -1.9301157949903E+00
(PID.TID 0000.0001) %MON dynstat_sst_mean             =   1.8639709931638E+01
(PID.TID 0000.0001) %MON dynstat_sst_sd               =   8.9066433350478E+00
(PID.TID 0000.0001) %MON dynstat_sst_del2             =   2.7051318972977E-01
(PID.TID 0000.0001) %MON dynstat_sss_max              =   3.7389372834216E+01
(PID.TID 0000.0001) %MON dynstat_sss_min              =   2.9880051004202E+01
(PID.TID 0000.0001) %MON dynstat_sss_mean             =   3.4842969728838E+01
(PID.TID 0000.0001) %MON dynstat_sss_sd               =   9.5953528463261E-01
(PID.TID 0000.0001) %MON dynstat_sss_del2             =   7.9835565730430E-02
(PID.TID 0000.0001) %MON extforcing_qnet_max          =   3.6793170572917E+02
(PID.TID 0000.0001) %MON extforcing_qnet_min          =  -1.7451060384115E+02
(PID.TID 0000.0001) %MON extforcing_qnet_mean         =  -1.4559615150767E+01
(PID.TID 0000.0001) %MON extforcing_qnet_sd           =   8.6177901833202E+01
(PID.TID 0000.0001) %MON extforcing_qnet_del2         =   8.7302482141517E+00
(PID.TID 0000.0001) %MON extforcing_qsw_max           =   0.0000000000000E+00
(PID.TID 0000.0001) %MON extforcing_qsw_min           =   0.0000000000000E+00
(PID.TID 0000.0001) %MON extforcing_qsw_mean          =   0.0000000000000E+00
(PID.TID 0000.0001) %MON extforcing_qsw_sd            =   0.0000000000000E+00
(PID.TID 0000.0001) %MON extforcing_qsw_del2          =   0.0000000000000E+00
(PID.TID 0000.0001) %MON extforcing_empmr_max         =   0.0000000000000E+00
(PID.TID 0000.0001) %MON extforcing_empmr_min         =   0.0000000000000E+00
(PID.TID 0000.0001) %MON extforcing_empmr_mean        =   0.0000000000000E+00
(PID.TID 0000.0001) %MON extforcing_empmr_sd          =   0.0000000000000E+00
(PID.TID 0000.0001) %MON extforcing_empmr_del2        =   0.0000000000000E+00
(PID.TID 0000.0001) %MON extforcing_fu_max            =   2.9492541849613E-01
(PID.TID 0000.0001) %MON extforcing_fu_min            =  -2.0411288440228E-01
(PID.TID 0000.0001) %MON extforcing_fu_mean           =   1.7250640108353E-02
(PID.TID 0000.0001) %MON extforcing_fu_sd             =   9.1176576117499E-02
(PID.TID 0000.0001) %MON extforcing_fu_del2           =   7.6268744055427E-03
(PID.TID 0000.0001) %MON extforcing_fv_max            =   1.8680121054252E-01
(PID.TID 0000.0001) %MON extforcing_fv_min            =  -1.7747596303622E-01
(PID.TID 0000.0001) %MON extforcing_fv_mean           =  -6.7598985939541E-03
(PID.TID 0000.0001) %MON extforcing_fv_sd             =   4.4539193201071E-02
(PID.TID 0000.0001) %MON extforcing_fv_del2           =   4.6466994937672E-03
(PID.TID 0000.0001) %MON advcfl_uvel_max              =   2.7280302044594E-02
(PID.TID 0000.0001) %MON advcfl_vvel_max              =   1.5380024597107E-02
(PID.TID 0000.0001) %MON advcfl_wvel_max              =   1.6404121363045E-01
(PID.TID 0000.0001) %MON advcfl_W_hf_max              =   1.5170686303069E-01
(PID.TID 0000.0001) %MON pe_b_mean                    =   2.6189049855535E-04
(PID.TID 0000.0001) %MON ke_max                       =   2.2342351140510E-02
(PID.TID 0000.0001) %MON ke_mean                      =   2.1796626405934E-04
(PID.TID 0000.0001) %MON ke_vol                       =   1.3226782436723E+18
(PID.TID 0000.0001) %MON vort_r_min                   =  -4.9496232631460E-07
(PID.TID 0000.0001) %MON vort_r_max                   =   4.4273438658001E-07
(PID.TID 0000.0001) %MON vort_a_mean                  =  -2.5205769043838E-05
(PID.TID 0000.0001) %MON vort_a_sd                    =   7.3403589256386E-05
(PID.TID 0000.0001) %MON vort_p_mean                  =  -3.1758669116981E-05
(PID.TID 0000.0001) %MON vort_p_sd                    =   1.3126473668598E-04
(PID.TID 0000.0001) %MON surfExpan_theta_mean         =   3.7297374683589E-06
(PID.TID 0000.0001) %MON surfExpan_salt_mean          =   3.2608636633535E-07
(PID.TID 0000.0001) // =======================================================
(PID.TID 0000.0001) // End MONITOR dynamic field statistics
(PID.TID 0000.0001) // =======================================================
time,SST,SSS,fu,fv,Q,E-P,i0,i1,a,b =   3.3264E+06 -2.0896E-01  3.4485E+01 -1.9028E-02 -2.6220E-02  2.4596E+02  0.0000E+00     1     2  7.8333E-01  2.1667E-01
time,fu0,fu1,fu =   3.3264E+06 -3.5633E-02 -1.4435E-02 -1.9028E-02  7.833333333333333E-01  2.166666666666667E-01
 cg2d: Sum(rhs),rhsMax =   2.38090103188426E-12  9.54305671450154E+00
(PID.TID 0000.0001)                    cg2d_init_res =    3.61247597134012E-01
(PID.TID 0000.0001)                       cg2d_iters =    24
(PID.TID 0000.0001)                         cg2d_res =    6.18114682272155E-14
(PID.TID 0000.0001) // =======================================================
(PID.TID 0000.0001) // Begin MONITOR dynamic field statistics
(PID.TID 0000.0001) // =======================================================
(PID.TID 0000.0001) %MON time_tsnumber                =                    78
(PID.TID 0000.0001) %MON time_secondsf                =   3.3696000000000E+06
(PID.TID 0000.0001) %MON dynstat_eta_max              =   1.0520460874497E+00
(PID.TID 0000.0001) %MON dynstat_eta_min              =  -1.3734597241204E+00
(PID.TID 0000.0001) %MON dynstat_eta_mean             =  -1.5330646730159E-15
(PID.TID 0000.0001) %MON dynstat_eta_sd               =   4.5301318653496E-01
(PID.TID 0000.0001) %MON dynstat_eta_del2             =   2.5616356158227E-02
(PID.TID 0000.0001) %MON dynstat_uvel_max             =   2.1013322378412E-01
(PID.TID 0000.0001) %MON dynstat_uvel_min             =  -1.4382445225933E-01
(PID.TID 0000.0001) %MON dynstat_uvel_mean            =   1.4170101308057E-03
(PID.TID 0000.0001) %MON dynstat_uvel_sd              =   1.6159101637216E-02
(PID.TID 0000.0001) %MON dynstat_uvel_del2            =   3.4417542702132E-03
(PID.TID 0000.0001) %MON dynstat_vvel_max             =   1.5545443224983E-01
(PID.TID 0000.0001) %MON dynstat_vvel_min             =  -1.1718710761121E-01
(PID.TID 0000.0001) %MON dynstat_vvel_mean            =  -1.1126541575493E-03
(PID.TID 0000.0001) %MON dynstat_vvel_sd              =   1.4434240127118E-02
(PID.TID 0000.0001) %MON dynstat_vvel_del2            =   3.4470033826460E-03
(PID.TID 0000.0001) %MON dynstat_wvel_max             =   1.9125602251556E-04
(PID.TID 0000.0001) %MON dynstat_wvel_min             =  -1.2005276537571E-04
(PID.TID 0000.0001) %MON dynstat_wvel_mean            =   2.2462128579590E-22
(PID.TID 0000.0001) %MON dynstat_wvel_sd              =   1.9693938779128E-05
(PID.TID 0000.0001) %MON dynstat_wvel_del2            =   6.6223011560443E-06
(PID.TID 0000.0001) %MON dynstat_theta_max            =   2.9556668129602E+01
(PID.TID 0000.0001) %MON dynstat_theta_min            =  -2.0317119245392E+00
(PID.TID 0000.0001) %MON dynstat_theta_mean           =   3.5893567882121E+00
(PID.TID 0000.0001) %MON dynstat_theta_sd             =   4.3415996880273E+00
(PID.TID 0000.0001) %MON dynstat_theta_del2           =   1.3825589134508E-01
(PID.TID 0000.0001) %MON dynstat_salt_max             =   3.7389402925226E+01
(PID.TID 0000.0001) %MON dynstat_salt_min             =   2.9881099611212E+01
(PID.TID 0000.0001) %MON dynstat_salt_mean            =   3.4715968213024E+01
(PID.TID 0000.0001) %MON dynstat_salt_sd              =   2.9552487135533E-01
(PID.TID 0000.0001) %MON dynstat_salt_del2            =   2.5586908510538E-02
(PID.TID 0000.0001) %MON dynstat_sst_max              =   2.9556668129602E+01
(PID.TID 0000.0001) %MON dynstat_sst_min              =  -1.9293439336285E+00
(PID.TID 0000.0001) %MON dynstat_sst_mean             =   1.8640535531498E+01
(PID.TID 0000.0001) %MON dynstat_sst_sd               =   8.9096212395892E+00
(PID.TID 0000.0001) %MON dynstat_sst_del2             =   2.7047297971874E-01
(PID.TID 0000.0001) %MON dynstat_sss_max              =   3.7389401098472E+01
(PID.TID 0000.0001) %MON dynstat_sss_min              =   2.9881099611212E+01
(PID.TID 0000.0001) %MON dynstat_sss_mean             =   3.4842616930742E+01
(PID.TID 0000.0001) %MON dynstat_sss_sd               =   9.5931471844050E-01
(PID.TID 0000.0001) %MON dynstat_sss_del2             =   7.9799922475975E-02
(PID.TID 0000.0001) %MON extforcing_qnet_max          =   3.6725460103353E+02
(PID.TID 0000.0001) %MON extforcing_qnet_min          =  -1.7439084421794E+02
(PID.TID 0000.0001) %MON extforcing_qnet_mean         =  -1.4517160567065E+01
(PID.TID 0000.0001) %MON extforcing_qnet_sd           =   8.5695643106463E+01
(PID.TID 0000.0001) %MON extforcing_qnet_del2         =   8.7174757327856E+00
(PID.TID 0000.0001) %MON extforcing_qsw_max           =   0.0000000000000E+00
(PID.TID 0000.0001) %MON extforcing_qsw_min           =   0.0000000000000E+00
(PID.TID 0000.0001) %MON extforcing_qsw_mean          =   0.0000000000000E+00
(PID.TID 0000.0001) %MON extforcing_qsw_sd            =   0.0000000000000E+00
(PID.TID 0000.0001) %MON extforcing_qsw_del2          =   0.0000000000000E+00
(PID.TID 0000.0001) %MON extforcing_empmr_max         =   0.0000000000000E+00
(PID.TID 0000.0001) %MON extforcing_empmr_min         =   0.0000000000000E+00
(PID.TID 0000.0001) %MON extforcing_empmr_mean        =   0.0000000000000E+00
(PID.TID 0000.0001) %MON extforcing_empmr_sd          =   0.0000000000000E+00
(PID.TID 0000.0001) %MON extforcing_empmr_del2        =   0.0000000000000E+00
(PID.TID 0000.0001) %MON extforcing_fu_max            =   2.9561899751425E-01
(PID.TID 0000.0001) %MON extforcing_fu_min            =  -2.0494284629822E-01
(PID.TID 0000.0001) %MON extforcing_fu_mean           =   1.7277790216087E-02
(PID.TID 0000.0001) %MON extforcing_fu_sd             =   9.1280919650502E-02
(PID.TID 0000.0001) %MON extforcing_fu_del2           =   7.6532903151135E-03
(PID.TID 0000.0001) %MON extforcing_fv_max            =   1.8785719300310E-01
(PID.TID 0000.0001) %MON extforcing_fv_min            =  -1.7906191249688E-01
(PID.TID 0000.0001) %MON extforcing_fv_mean           =  -6.7925290473117E-03
(PID.TID 0000.0001) %MON extforcing_fv_sd             =   4.4549836721568E-02
(PID.TID 0000.0001) %MON extforcing_fv_del2           =   4.6742116193687E-03
(PID.TID 0000.0001) %MON advcfl_uvel_max              =   2.7468074761401E-02
(PID.TID 0000.0001) %MON advcfl_vvel_max              =   1.5101151498397E-02
(PID.TID 0000.0001) %MON advcfl_wvel_max              =   1.5145431891816E-01
(PID.TID 0000.0001) %MON advcfl_W_hf_max              =   1.4006532100374E-01
(PID.TID 0000.0001) %MON pe_b_mean                    =   2.6260493777155E-04
(PID.TID 0000.0001) %MON ke_max                       =   2.2631132427439E-02
(PID.TID 0000.0001) %MON ke_mean                      =   2.1363345835062E-04
(PID.TID 0000.0001) %MON ke_vol                       =   1.3226782436723E+18
(PID.TID 0000.0001) %MON vort_r_min                   =  -4.9374650629415E-07
(PID.TID 0000.0001) %MON vort_r_max                   =   4.4342160937335E-07
(PID.TID 0000.0001) %MON vort_a_mean                  =  -2.5205769051953E-05
(PID.TID 0000.0001) %MON vort_a_sd                    =   7.3403605208527E-05
(PID.TID 0000.0001) %MON vort_p_mean                  =  -3.1758669127205E-05
(PID.TID 0000.0001) %MON vort_p_sd                    =   1.3126472329106E-04
(PID.TID 0000.0001) %MON surfExpan_theta_mean         =   4.2144037954164E-06
(PID.TID 0000.0001) %MON surfExpan_salt_mean          =   2.6687346914346E-07
(PID.TID 0000.0001) // =======================================================
(PID.TID 0000.0001) // End MONITOR dynamic field statistics
(PID.TID 0000.0001) // =======================================================
time,SST,SSS,fu,fv,Q,E-P,i0,i1,a,b =   3.3696E+06 -2.3380E-01  3.4480E+01 -1.8674E-02 -2.5560E-02  2.4554E+02  0.0000E+00     1     2  8.0000E-01  2.0000E-01
time,fu0,fu1,fu =   3.3696E+06 -3.5633E-02 -1.4435E-02 -1.8674E-02  8.000000000000000E-01  2.000000000000000E-01
 cg2d: Sum(rhs),rhsMax =   1.98395466721735E-12  9.54625980631856E+00
(PID.TID 0000.0001)                    cg2d_init_res =    3.42502396705874E-01
(PID.TID 0000.0001)                       cg2d_iters =    24
(PID.TID 0000.0001)                         cg2d_res =    6.12085243276312E-14
(PID.TID 0000.0001) // =======================================================
(PID.TID 0000.0001) // Begin MONITOR dynamic field statistics
(PID.TID 0000.0001) // =======================================================
(PID.TID 0000.0001) %MON time_tsnumber                =                    79
(PID.TID 0000.0001) %MON time_secondsf                =   3.4128000000000E+06
(PID.TID 0000.0001) %MON dynstat_eta_max              =   1.0517058422207E+00
(PID.TID 0000.0001) %MON dynstat_eta_min              =  -1.3745766753771E+00
(PID.TID 0000.0001) %MON dynstat_eta_mean             =  -1.3251221832502E-15
(PID.TID 0000.0001) %MON dynstat_eta_sd               =   4.5368620871973E-01
(PID.TID 0000.0001) %MON dynstat_eta_del2             =   2.5755211336013E-02
(PID.TID 0000.0001) %MON dynstat_uvel_max             =   2.1010842510601E-01
(PID.TID 0000.0001) %MON dynstat_uvel_min             =  -1.4207828162161E-01
(PID.TID 0000.0001) %MON dynstat_uvel_mean            =   1.4926818713181E-03
(PID.TID 0000.0001) %MON dynstat_uvel_sd              =   1.5883446801411E-02
(PID.TID 0000.0001) %MON dynstat_uvel_del2            =   3.4178419875737E-03
(PID.TID 0000.0001) %MON dynstat_vvel_max             =   1.5178213717284E-01
(PID.TID 0000.0001) %MON dynstat_vvel_min             =  -1.1665777836752E-01
(PID.TID 0000.0001) %MON dynstat_vvel_mean            =  -1.0357495840452E-03
(PID.TID 0000.0001) %MON dynstat_vvel_sd              =   1.4401865785843E-02
(PID.TID 0000.0001) %MON dynstat_vvel_del2            =   3.4278654850449E-03
(PID.TID 0000.0001) %MON dynstat_wvel_max             =   1.8861570767402E-04
(PID.TID 0000.0001) %MON dynstat_wvel_min             =  -1.1213995622606E-04
(PID.TID 0000.0001) %MON dynstat_wvel_mean            =  -8.1391670851299E-23
(PID.TID 0000.0001) %MON dynstat_wvel_sd              =   1.9391585577623E-05
(PID.TID 0000.0001) %MON dynstat_wvel_del2            =   6.5650725878005E-06
(PID.TID 0000.0001) %MON dynstat_theta_max            =   2.9571641702868E+01
(PID.TID 0000.0001) %MON dynstat_theta_min            =  -2.0316102122018E+00
(PID.TID 0000.0001) %MON dynstat_theta_mean           =   3.5893432723991E+00
(PID.TID 0000.0001) %MON dynstat_theta_sd             =   4.3417322798431E+00
(PID.TID 0000.0001) %MON dynstat_theta_del2           =   1.3843228624542E-01
(PID.TID 0000.0001) %MON dynstat_salt_max             =   3.7389444325466E+01
(PID.TID 0000.0001) %MON dynstat_salt_min             =   2.9882019801828E+01
(PID.TID 0000.0001) %MON dynstat_salt_mean            =   3.4715965874649E+01
(PID.TID 0000.0001) %MON dynstat_salt_sd              =   2.9550876329684E-01
(PID.TID 0000.0001) %MON dynstat_salt_del2            =   2.5586847234787E-02
(PID.TID 0000.0001) %MON dynstat_sst_max              =   2.9571641702868E+01
(PID.TID 0000.0001) %MON dynstat_sst_min              =  -1.9287389590801E+00
(PID.TID 0000.0001) %MON dynstat_sst_mean             =   1.8641164483245E+01
(PID.TID 0000.0001) %MON dynstat_sst_sd               =   8.9125687310510E+00
(PID.TID 0000.0001) %MON dynstat_sst_del2             =   2.7038232983233E-01
(PID.TID 0000.0001) %MON dynstat_sss_max              =   3.7389442498284E+01
(PID.TID 0000.0001) %MON dynstat_sss_min              =   2.9882019801828E+01
(PID.TID 0000.0001) %MON dynstat_sss_mean             =   3.4842244763048E+01
(PID.TID 0000.0001) %MON dynstat_sss_sd               =   9.5907487468065E-01
(PID.TID 0000.0001) %MON dynstat_sss_del2             =   7.9753541449730E-02
(PID.TID 0000.0001) %MON extforcing_qnet_max          =   3.6657749633789E+02
(PID.TID 0000.0001) %MON extforcing_qnet_min          =  -1.7427108459473E+02
(PID.TID 0000.0001) %MON extforcing_qnet_mean         =  -1.4474705983364E+01
(PID.TID 0000.0001) %MON extforcing_qnet_sd           =   8.5215174338696E+01
(PID.TID 0000.0001) %MON extforcing_qnet_del2         =   8.7049136130238E+00
(PID.TID 0000.0001) %MON extforcing_qsw_max           =   0.0000000000000E+00
(PID.TID 0000.0001) %MON extforcing_qsw_min           =   0.0000000000000E+00
(PID.TID 0000.0001) %MON extforcing_qsw_mean          =   0.0000000000000E+00
(PID.TID 0000.0001) %MON extforcing_qsw_sd            =   0.0000000000000E+00
(PID.TID 0000.0001) %MON extforcing_qsw_del2          =   0.0000000000000E+00
(PID.TID 0000.0001) %MON extforcing_empmr_max         =   0.0000000000000E+00
(PID.TID 0000.0001) %MON extforcing_empmr_min         =   0.0000000000000E+00
(PID.TID 0000.0001) %MON extforcing_empmr_mean        =   0.0000000000000E+00
(PID.TID 0000.0001) %MON extforcing_empmr_sd          =   0.0000000000000E+00
(PID.TID 0000.0001) %MON extforcing_empmr_del2        =   0.0000000000000E+00
(PID.TID 0000.0001) %MON extforcing_fu_max            =   2.9631257653236E-01
(PID.TID 0000.0001) %MON extforcing_fu_min            =  -2.0577280819416E-01
(PID.TID 0000.0001) %MON extforcing_fu_mean           =   1.7304940323822E-02
(PID.TID 0000.0001) %MON extforcing_fu_sd             =   9.1389471133942E-02
(PID.TID 0000.0001) %MON extforcing_fu_del2           =   7.6807862381034E-03
(PID.TID 0000.0001) %MON extforcing_fv_max            =   1.8891317546368E-01
(PID.TID 0000.0001) %MON extforcing_fv_min            =  -1.8064786195755E-01
(PID.TID 0000.0001) %MON extforcing_fv_mean           =  -6.8251595006693E-03
(PID.TID 0000.0001) %MON extforcing_fv_sd             =   4.4564502921920E-02
(PID.TID 0000.0001) %MON extforcing_fv_del2           =   4.7030278960052E-03
(PID.TID 0000.0001) %MON advcfl_uvel_max              =   2.7464833141955E-02
(PID.TID 0000.0001) %MON advcfl_vvel_max              =   1.4744417479934E-02
(PID.TID 0000.0001) %MON advcfl_wvel_max              =   1.3473946827315E-01
(PID.TID 0000.0001) %MON advcfl_W_hf_max              =   1.2460371288040E-01
(PID.TID 0000.0001) %MON pe_b_mean                    =   2.6338579908389E-04
(PID.TID 0000.0001) %MON ke_max                       =   2.2714098246010E-02
(PID.TID 0000.0001) %MON ke_mean                      =   2.0922738146129E-04
(PID.TID 0000.0001) %MON ke_vol                       =   1.3226782436723E+18
(PID.TID 0000.0001) %MON vort_r_min                   =  -4.9113878764514E-07
(PID.TID 0000.0001) %MON vort_r_max                   =   4.3651131578454E-07
(PID.TID 0000.0001) %MON vort_a_mean                  =  -2.5205769061391E-05
(PID.TID 0000.0001) %MON vort_a_sd                    =   7.3403619088946E-05
(PID.TID 0000.0001) %MON vort_p_mean                  =  -3.1758669139097E-05
(PID.TID 0000.0001) %MON vort_p_sd                    =   1.3126470471367E-04
(PID.TID 0000.0001) %MON surfExpan_theta_mean         =   4.8138251337934E-06
(PID.TID 0000.0001) %MON surfExpan_salt_mean          =   2.0765104112927E-07
(PID.TID 0000.0001) // =======================================================
(PID.TID 0000.0001) // End MONITOR dynamic field statistics
(PID.TID 0000.0001) // =======================================================
time,SST,SSS,fu,fv,Q,E-P,i0,i1,a,b =   3.4128E+06 -2.5864E-01  3.4475E+01 -1.8321E-02 -2.4899E-02  2.4512E+02  0.0000E+00     1     2  8.1667E-01  1.8333E-01
time,fu0,fu1,fu =   3.4128E+06 -3.5633E-02 -1.4435E-02 -1.8321E-02  8.166666666666667E-01  1.833333333333333E-01
 cg2d: Sum(rhs),rhsMax =   2.38616765235733E-12  9.44553374716868E+00
(PID.TID 0000.0001)                    cg2d_init_res =    3.30886950704067E-01
(PID.TID 0000.0001)                       cg2d_iters =    24
(PID.TID 0000.0001)                         cg2d_res =    6.19195789003253E-14
(PID.TID 0000.0001) // =======================================================
(PID.TID 0000.0001) // Begin MONITOR dynamic field statistics
(PID.TID 0000.0001) // =======================================================
(PID.TID 0000.0001) %MON time_tsnumber                =                    80
(PID.TID 0000.0001) %MON time_secondsf                =   3.4560000000000E+06
(PID.TID 0000.0001) %MON dynstat_eta_max              =   1.0393458559273E+00
(PID.TID 0000.0001) %MON dynstat_eta_min              =  -1.3732285524075E+00
(PID.TID 0000.0001) %MON dynstat_eta_mean             =  -1.2577372131063E-15
(PID.TID 0000.0001) %MON dynstat_eta_sd               =   4.5440803270447E-01
(PID.TID 0000.0001) %MON dynstat_eta_del2             =   2.5840690153318E-02
(PID.TID 0000.0001) %MON dynstat_uvel_max             =   2.0863870677382E-01
(PID.TID 0000.0001) %MON dynstat_uvel_min             =  -1.4013444792443E-01
(PID.TID 0000.0001) %MON dynstat_uvel_mean            =   1.5564173586501E-03
(PID.TID 0000.0001) %MON dynstat_uvel_sd              =   1.5607939572371E-02
(PID.TID 0000.0001) %MON dynstat_uvel_del2            =   3.3967190390108E-03
(PID.TID 0000.0001) %MON dynstat_vvel_max             =   1.4941095442399E-01
(PID.TID 0000.0001) %MON dynstat_vvel_min             =  -1.1600007705669E-01
(PID.TID 0000.0001) %MON dynstat_vvel_mean            =  -9.6233300888931E-04
(PID.TID 0000.0001) %MON dynstat_vvel_sd              =   1.4365802113420E-02
(PID.TID 0000.0001) %MON dynstat_vvel_del2            =   3.4097853541088E-03
(PID.TID 0000.0001) %MON dynstat_wvel_max             =   1.8557912036535E-04
(PID.TID 0000.0001) %MON dynstat_wvel_min             =  -1.1857278205626E-04
(PID.TID 0000.0001) %MON dynstat_wvel_mean            =  -3.5490300777290E-22
(PID.TID 0000.0001) %MON dynstat_wvel_sd              =   1.9117609001827E-05
(PID.TID 0000.0001) %MON dynstat_wvel_del2            =   6.5266314670361E-06
(PID.TID 0000.0001) %MON dynstat_theta_max            =   2.9586396709670E+01
(PID.TID 0000.0001) %MON dynstat_theta_min            =  -2.0314182497988E+00
(PID.TID 0000.0001) %MON dynstat_theta_mean           =   3.5893223426239E+00
(PID.TID 0000.0001) %MON dynstat_theta_sd             =   4.3418428704205E+00
(PID.TID 0000.0001) %MON dynstat_theta_del2           =   1.3864705984255E-01
(PID.TID 0000.0001) %MON dynstat_salt_max             =   3.7389485710474E+01
(PID.TID 0000.0001) %MON dynstat_salt_min             =   2.9882816122068E+01
(PID.TID 0000.0001) %MON dynstat_salt_mean            =   3.4715964217610E+01
(PID.TID 0000.0001) %MON dynstat_salt_sd              =   2.9549311819993E-01
(PID.TID 0000.0001) %MON dynstat_salt_del2            =   2.5594340801226E-02
(PID.TID 0000.0001) %MON dynstat_sst_max              =   2.9586396709670E+01
(PID.TID 0000.0001) %MON dynstat_sst_min              =  -1.9283156167673E+00
(PID.TID 0000.0001) %MON dynstat_sst_mean             =   1.8641562152912E+01
(PID.TID 0000.0001) %MON dynstat_sst_sd               =   8.9155016066199E+00
(PID.TID 0000.0001) %MON dynstat_sst_del2             =   2.7051307744369E-01
(PID.TID 0000.0001) %MON dynstat_sss_max              =   3.7389483894632E+01
(PID.TID 0000.0001) %MON dynstat_sss_min              =   2.9882816122068E+01
(PID.TID 0000.0001) %MON dynstat_sss_mean             =   3.4841845143690E+01
(PID.TID 0000.0001) %MON dynstat_sss_sd               =   9.5879705068881E-01
(PID.TID 0000.0001) %MON dynstat_sss_del2             =   7.9752329034770E-02
(PID.TID 0000.0001) %MON extforcing_qnet_max          =   3.6590039164225E+02
(PID.TID 0000.0001) %MON extforcing_qnet_min          =  -1.7415132497152E+02
(PID.TID 0000.0001) %MON extforcing_qnet_mean         =  -1.4432251399662E+01
(PID.TID 0000.0001) %MON extforcing_qnet_sd           =   8.4736525977910E+01
(PID.TID 0000.0001) %MON extforcing_qnet_del2         =   8.6924102653436E+00
(PID.TID 0000.0001) %MON extforcing_qsw_max           =   0.0000000000000E+00
(PID.TID 0000.0001) %MON extforcing_qsw_min           =   0.0000000000000E+00
(PID.TID 0000.0001) %MON extforcing_qsw_mean          =   0.0000000000000E+00
(PID.TID 0000.0001) %MON extforcing_qsw_sd            =   0.0000000000000E+00
(PID.TID 0000.0001) %MON extforcing_qsw_del2          =   0.0000000000000E+00
(PID.TID 0000.0001) %MON extforcing_empmr_max         =   0.0000000000000E+00
(PID.TID 0000.0001) %MON extforcing_empmr_min         =   0.0000000000000E+00
(PID.TID 0000.0001) %MON extforcing_empmr_mean        =   0.0000000000000E+00
(PID.TID 0000.0001) %MON extforcing_empmr_sd          =   0.0000000000000E+00
(PID.TID 0000.0001) %MON extforcing_empmr_del2        =   0.0000000000000E+00
(PID.TID 0000.0001) %MON extforcing_fu_max            =   2.9700615555048E-01
(PID.TID 0000.0001) %MON extforcing_fu_min            =  -2.0660277009010E-01
(PID.TID 0000.0001) %MON extforcing_fu_mean           =   1.7332090431556E-02
(PID.TID 0000.0001) %MON extforcing_fu_sd             =   9.1502215591815E-02
(PID.TID 0000.0001) %MON extforcing_fu_del2           =   7.7093865384859E-03
(PID.TID 0000.0001) %MON extforcing_fv_max            =   1.8996915792425E-01
(PID.TID 0000.0001) %MON extforcing_fv_min            =  -1.8223381141822E-01
(PID.TID 0000.0001) %MON extforcing_fv_mean           =  -6.8577899540269E-03
(PID.TID 0000.0001) %MON extforcing_fv_sd             =   4.4583187832196E-02
(PID.TID 0000.0001) %MON extforcing_fv_del2           =   4.7329808100075E-03
(PID.TID 0000.0001) %MON advcfl_uvel_max              =   2.7272715340211E-02
(PID.TID 0000.0001) %MON advcfl_vvel_max              =   1.4514076090483E-02
(PID.TID 0000.0001) %MON advcfl_wvel_max              =   1.1469515137677E-01
(PID.TID 0000.0001) %MON advcfl_W_hf_max              =   1.0606108328073E-01
(PID.TID 0000.0001) %MON pe_b_mean                    =   2.6422457013010E-04
(PID.TID 0000.0001) %MON ke_max                       =   2.2586652099089E-02
(PID.TID 0000.0001) %MON ke_mean                      =   2.0484236416874E-04
(PID.TID 0000.0001) %MON ke_vol                       =   1.3226782436723E+18
(PID.TID 0000.0001) %MON vort_r_min                   =  -4.8701904287473E-07
(PID.TID 0000.0001) %MON vort_r_max                   =   4.2676784968877E-07
(PID.TID 0000.0001) %MON vort_a_mean                  =  -2.5205769071111E-05
(PID.TID 0000.0001) %MON vort_a_sd                    =   7.3403630758397E-05
(PID.TID 0000.0001) %MON vort_p_mean                  =  -3.1758669151344E-05
(PID.TID 0000.0001) %MON vort_p_sd                    =   1.3126468057592E-04
(PID.TID 0000.0001) %MON surfExpan_theta_mean         =   5.5091109832852E-06
(PID.TID 0000.0001) %MON surfExpan_salt_mean          =   1.5162067612278E-07
(PID.TID 0000.0001) // =======================================================
(PID.TID 0000.0001) // End MONITOR dynamic field statistics
(PID.TID 0000.0001) // =======================================================
time,SST,SSS,fu,fv,Q,E-P,i0,i1,a,b =   3.4560E+06 -2.8348E-01  3.4470E+01 -1.7968E-02 -2.4239E-02  2.4470E+02  0.0000E+00     1     2  8.3333E-01  1.6667E-01
time,fu0,fu1,fu =   3.4560E+06 -3.5633E-02 -1.4435E-02 -1.7968E-02  8.333333333333334E-01  1.666666666666666E-01
 cg2d: Sum(rhs),rhsMax =   2.62605909240321E-12  9.24503765445439E+00
(PID.TID 0000.0001)                    cg2d_init_res =    3.27336446775908E-01
(PID.TID 0000.0001)                       cg2d_iters =    24
(PID.TID 0000.0001)                         cg2d_res =    6.32824782649284E-14
(PID.TID 0000.0001) // =======================================================
(PID.TID 0000.0001) // Begin MONITOR dynamic field statistics
(PID.TID 0000.0001) // =======================================================
(PID.TID 0000.0001) %MON time_tsnumber                =                    81
(PID.TID 0000.0001) %MON time_secondsf                =   3.4992000000000E+06
(PID.TID 0000.0001) %MON dynstat_eta_max              =   1.0158937328737E+00
(PID.TID 0000.0001) %MON dynstat_eta_min              =  -1.3697471993067E+00
(PID.TID 0000.0001) %MON dynstat_eta_mean             =  -1.6452220172746E-15
(PID.TID 0000.0001) %MON dynstat_eta_sd               =   4.5517707185968E-01
(PID.TID 0000.0001) %MON dynstat_eta_del2             =   2.5893214362407E-02
(PID.TID 0000.0001) %MON dynstat_uvel_max             =   2.0576330298814E-01
(PID.TID 0000.0001) %MON dynstat_uvel_min             =  -1.3800680151938E-01
(PID.TID 0000.0001) %MON dynstat_uvel_mean            =   1.6078168980767E-03
(PID.TID 0000.0001) %MON dynstat_uvel_sd              =   1.5336676112783E-02
(PID.TID 0000.0001) %MON dynstat_uvel_del2            =   3.3819495864189E-03
(PID.TID 0000.0001) %MON dynstat_vvel_max             =   1.5100402696569E-01
(PID.TID 0000.0001) %MON dynstat_vvel_min             =  -1.1522263862914E-01
(PID.TID 0000.0001) %MON dynstat_vvel_mean            =  -8.9271801703406E-04
(PID.TID 0000.0001) %MON dynstat_vvel_sd              =   1.4328154190394E-02
(PID.TID 0000.0001) %MON dynstat_vvel_del2            =   3.3934774740371E-03
(PID.TID 0000.0001) %MON dynstat_wvel_max             =   1.8223586364455E-04
(PID.TID 0000.0001) %MON dynstat_wvel_min             =  -1.3193748073861E-04
(PID.TID 0000.0001) %MON dynstat_wvel_mean            =   1.6672849243852E-22
(PID.TID 0000.0001) %MON dynstat_wvel_sd              =   1.8883868358634E-05
(PID.TID 0000.0001) %MON dynstat_wvel_del2            =   6.5057201739589E-06
(PID.TID 0000.0001) %MON dynstat_theta_max            =   2.9600739418140E+01
(PID.TID 0000.0001) %MON dynstat_theta_min            =  -2.0311303319028E+00
(PID.TID 0000.0001) %MON dynstat_theta_mean           =   3.5892930759203E+00
(PID.TID 0000.0001) %MON dynstat_theta_sd             =   4.3419281199381E+00
(PID.TID 0000.0001) %MON dynstat_theta_del2           =   1.3880724274834E-01
(PID.TID 0000.0001) %MON dynstat_salt_max             =   3.7389515079298E+01
(PID.TID 0000.0001) %MON dynstat_salt_min             =   2.9883497409512E+01
(PID.TID 0000.0001) %MON dynstat_salt_mean            =   3.4715963185455E+01
(PID.TID 0000.0001) %MON dynstat_salt_sd              =   2.9547870362058E-01
(PID.TID 0000.0001) %MON dynstat_salt_del2            =   2.5589524629659E-02
(PID.TID 0000.0001) %MON dynstat_sst_max              =   2.9600739418140E+01
(PID.TID 0000.0001) %MON dynstat_sst_min              =  -1.9280819837608E+00
(PID.TID 0000.0001) %MON dynstat_sst_mean             =   1.8641887907304E+01
(PID.TID 0000.0001) %MON dynstat_sst_sd               =   8.9183314068024E+00
(PID.TID 0000.0001) %MON dynstat_sst_del2             =   2.7043162837654E-01
(PID.TID 0000.0001) %MON dynstat_sss_max              =   3.7389513285771E+01
(PID.TID 0000.0001) %MON dynstat_sss_min              =   2.9883497409512E+01
(PID.TID 0000.0001) %MON dynstat_sss_mean             =   3.4841457847948E+01
(PID.TID 0000.0001) %MON dynstat_sss_sd               =   9.5853323169122E-01
(PID.TID 0000.0001) %MON dynstat_sss_del2             =   7.9701489697863E-02
(PID.TID 0000.0001) %MON extforcing_qnet_max          =   3.6522328694661E+02
(PID.TID 0000.0001) %MON extforcing_qnet_min          =  -1.7403156534831E+02
(PID.TID 0000.0001) %MON extforcing_qnet_mean         =  -1.4389796815960E+01
(PID.TID 0000.0001) %MON extforcing_qnet_sd           =   8.4259729047287E+01
(PID.TID 0000.0001) %MON extforcing_qnet_del2         =   8.6801912498386E+00
(PID.TID 0000.0001) %MON extforcing_qsw_max           =   0.0000000000000E+00
(PID.TID 0000.0001) %MON extforcing_qsw_min           =   0.0000000000000E+00
(PID.TID 0000.0001) %MON extforcing_qsw_mean          =   0.0000000000000E+00
(PID.TID 0000.0001) %MON extforcing_qsw_sd            =   0.0000000000000E+00
(PID.TID 0000.0001) %MON extforcing_qsw_del2          =   0.0000000000000E+00
(PID.TID 0000.0001) %MON extforcing_empmr_max         =   0.0000000000000E+00
(PID.TID 0000.0001) %MON extforcing_empmr_min         =   0.0000000000000E+00
(PID.TID 0000.0001) %MON extforcing_empmr_mean        =   0.0000000000000E+00
(PID.TID 0000.0001) %MON extforcing_empmr_sd          =   0.0000000000000E+00
(PID.TID 0000.0001) %MON extforcing_empmr_del2        =   0.0000000000000E+00
(PID.TID 0000.0001) %MON extforcing_fu_max            =   2.9769973456860E-01
(PID.TID 0000.0001) %MON extforcing_fu_min            =  -2.0743273198605E-01
(PID.TID 0000.0001) %MON extforcing_fu_mean           =   1.7359240539291E-02
(PID.TID 0000.0001) %MON extforcing_fu_sd             =   9.1619137544782E-02
(PID.TID 0000.0001) %MON extforcing_fu_del2           =   7.7392025548934E-03
(PID.TID 0000.0001) %MON extforcing_fv_max            =   1.9102514038483E-01
(PID.TID 0000.0001) %MON extforcing_fv_min            =  -1.8381976087888E-01
(PID.TID 0000.0001) %MON extforcing_fv_mean           =  -6.8904204073845E-03
(PID.TID 0000.0001) %MON extforcing_fv_sd             =   4.4605886402216E-02
(PID.TID 0000.0001) %MON extforcing_fv_del2           =   4.7645919332603E-03
(PID.TID 0000.0001) %MON advcfl_uvel_max              =   2.6896849949998E-02
(PID.TID 0000.0001) %MON advcfl_vvel_max              =   1.4668830313003E-02
(PID.TID 0000.0001) %MON advcfl_wvel_max              =   9.2204693177129E-02
(PID.TID 0000.0001) %MON advcfl_W_hf_max              =   8.5255052450557E-02
(PID.TID 0000.0001) %MON pe_b_mean                    =   2.6511967308765E-04
(PID.TID 0000.0001) %MON ke_max                       =   2.2249693621896E-02
(PID.TID 0000.0001) %MON ke_mean                      =   2.0055971173237E-04
(PID.TID 0000.0001) %MON ke_vol                       =   1.3226782436723E+18
(PID.TID 0000.0001) %MON vort_r_min                   =  -4.8131808661529E-07
(PID.TID 0000.0001) %MON vort_r_max                   =   4.2617062882941E-07
(PID.TID 0000.0001) %MON vort_a_mean                  =  -2.5205769080483E-05
(PID.TID 0000.0001) %MON vort_a_sd                    =   7.3403640096750E-05
(PID.TID 0000.0001) %MON vort_p_mean                  =  -3.1758669163152E-05
(PID.TID 0000.0001) %MON vort_p_sd                    =   1.3126465063851E-04
(PID.TID 0000.0001) %MON surfExpan_theta_mean         =   6.2767434872818E-06
(PID.TID 0000.0001) %MON surfExpan_salt_mean          =   1.0095294301446E-07
(PID.TID 0000.0001) // =======================================================
(PID.TID 0000.0001) // End MONITOR dynamic field statistics
(PID.TID 0000.0001) // =======================================================
time,SST,SSS,fu,fv,Q,E-P,i0,i1,a,b =   3.4992E+06 -3.0831E-01  3.4465E+01 -1.7614E-02 -2.3579E-02  2.4427E+02  0.0000E+00     1     2  8.5000E-01  1.5000E-01
time,fu0,fu1,fu =   3.4992E+06 -3.5633E-02 -1.4435E-02 -1.7614E-02  8.500000000000000E-01  1.500000000000000E-01
 cg2d: Sum(rhs),rhsMax =   2.64294142127142E-12  8.95108976893277E+00
(PID.TID 0000.0001)                    cg2d_init_res =    3.32495497111684E-01
(PID.TID 0000.0001)                       cg2d_iters =    24
(PID.TID 0000.0001)                         cg2d_res =    6.49720439554838E-14
(PID.TID 0000.0001) // =======================================================
(PID.TID 0000.0001) // Begin MONITOR dynamic field statistics
(PID.TID 0000.0001) // =======================================================
(PID.TID 0000.0001) %MON time_tsnumber                =                    82
(PID.TID 0000.0001) %MON time_secondsf                =   3.5424000000000E+06
(PID.TID 0000.0001) %MON dynstat_eta_max              =   9.8337423511929E-01
(PID.TID 0000.0001) %MON dynstat_eta_min              =  -1.3645088275106E+00
(PID.TID 0000.0001) %MON dynstat_eta_mean             =  -1.5978954669500E-15
(PID.TID 0000.0001) %MON dynstat_eta_sd               =   4.5599798644744E-01
(PID.TID 0000.0001) %MON dynstat_eta_del2             =   2.5932647388603E-02
(PID.TID 0000.0001) %MON dynstat_uvel_max             =   2.0154381871417E-01
(PID.TID 0000.0001) %MON dynstat_uvel_min             =  -1.3571141801662E-01
(PID.TID 0000.0001) %MON dynstat_uvel_mean            =   1.6466760431352E-03
(PID.TID 0000.0001) %MON dynstat_uvel_sd              =   1.5072959967874E-02
(PID.TID 0000.0001) %MON dynstat_uvel_del2            =   3.3726840123189E-03
(PID.TID 0000.0001) %MON dynstat_vvel_max             =   1.5235945619702E-01
(PID.TID 0000.0001) %MON dynstat_vvel_min             =  -1.1433430557844E-01
(PID.TID 0000.0001) %MON dynstat_vvel_mean            =  -8.2694774126732E-04
(PID.TID 0000.0001) %MON dynstat_vvel_sd              =   1.4291015833819E-02
(PID.TID 0000.0001) %MON dynstat_vvel_del2            =   3.3818944807852E-03
(PID.TID 0000.0001) %MON dynstat_wvel_max             =   1.7867630325461E-04
(PID.TID 0000.0001) %MON dynstat_wvel_min             =  -1.4421434892559E-04
(PID.TID 0000.0001) %MON dynstat_wvel_mean            =   7.0359010944444E-24
(PID.TID 0000.0001) %MON dynstat_wvel_sd              =   1.8698467981472E-05
(PID.TID 0000.0001) %MON dynstat_wvel_del2            =   6.5019409474623E-06
(PID.TID 0000.0001) %MON dynstat_theta_max            =   2.9614493790861E+01
(PID.TID 0000.0001) %MON dynstat_theta_min            =  -2.0307417935394E+00
(PID.TID 0000.0001) %MON dynstat_theta_mean           =   3.5892548178570E+00
(PID.TID 0000.0001) %MON dynstat_theta_sd             =   4.3419852971931E+00
(PID.TID 0000.0001) %MON dynstat_theta_del2           =   1.3895756293339E-01
(PID.TID 0000.0001) %MON dynstat_salt_max             =   3.7389521848265E+01
(PID.TID 0000.0001) %MON dynstat_salt_min             =   2.9884076113444E+01
(PID.TID 0000.0001) %MON dynstat_salt_mean            =   3.4715962701756E+01
(PID.TID 0000.0001) %MON dynstat_salt_sd              =   2.9546634484802E-01
(PID.TID 0000.0001) %MON dynstat_salt_del2            =   2.5584656717826E-02
(PID.TID 0000.0001) %MON dynstat_sst_max              =   2.9614493790861E+01
(PID.TID 0000.0001) %MON dynstat_sst_min              =  -1.9280377183637E+00
(PID.TID 0000.0001) %MON dynstat_sst_mean             =   1.8642284995323E+01
(PID.TID 0000.0001) %MON dynstat_sst_sd               =   8.9209743445286E+00
(PID.TID 0000.0001) %MON dynstat_sst_del2             =   2.7043396824102E-01
(PID.TID 0000.0001) %MON dynstat_sss_max              =   3.7389520086976E+01
(PID.TID 0000.0001) %MON dynstat_sss_min              =   2.9884076113444E+01
(PID.TID 0000.0001) %MON dynstat_sss_mean             =   3.4841114441324E+01
(PID.TID 0000.0001) %MON dynstat_sss_sd               =   9.5831988422210E-01
(PID.TID 0000.0001) %MON dynstat_sss_del2             =   7.9654815302535E-02
(PID.TID 0000.0001) %MON extforcing_qnet_max          =   3.6454618225098E+02
(PID.TID 0000.0001) %MON extforcing_qnet_min          =  -1.7391180572510E+02
(PID.TID 0000.0001) %MON extforcing_qnet_mean         =  -1.4347342232258E+01
(PID.TID 0000.0001) %MON extforcing_qnet_sd           =   8.3784815154812E+01
(PID.TID 0000.0001) %MON extforcing_qnet_del2         =   8.6681452204081E+00
(PID.TID 0000.0001) %MON extforcing_qsw_max           =   0.0000000000000E+00
(PID.TID 0000.0001) %MON extforcing_qsw_min           =   0.0000000000000E+00
(PID.TID 0000.0001) %MON extforcing_qsw_mean          =   0.0000000000000E+00
(PID.TID 0000.0001) %MON extforcing_qsw_sd            =   0.0000000000000E+00
(PID.TID 0000.0001) %MON extforcing_qsw_del2          =   0.0000000000000E+00
(PID.TID 0000.0001) %MON extforcing_empmr_max         =   0.0000000000000E+00
(PID.TID 0000.0001) %MON extforcing_empmr_min         =   0.0000000000000E+00
(PID.TID 0000.0001) %MON extforcing_empmr_mean        =   0.0000000000000E+00
(PID.TID 0000.0001) %MON extforcing_empmr_sd          =   0.0000000000000E+00
(PID.TID 0000.0001) %MON extforcing_empmr_del2        =   0.0000000000000E+00
(PID.TID 0000.0001) %MON extforcing_fu_max            =   2.9839331358671E-01
(PID.TID 0000.0001) %MON extforcing_fu_min            =  -2.0826269388199E-01
(PID.TID 0000.0001) %MON extforcing_fu_mean           =   1.7386390647025E-02
(PID.TID 0000.0001) %MON extforcing_fu_sd             =   9.1740221020321E-02
(PID.TID 0000.0001) %MON extforcing_fu_del2           =   7.7707903256353E-03
(PID.TID 0000.0001) %MON extforcing_fv_max            =   1.9208112284541E-01
(PID.TID 0000.0001) %MON extforcing_fv_min            =  -1.8540571033955E-01
(PID.TID 0000.0001) %MON extforcing_fv_mean           =  -6.9230508607420E-03
(PID.TID 0000.0001) %MON extforcing_fv_sd             =   4.4632592508362E-02
(PID.TID 0000.0001) %MON extforcing_fv_del2           =   4.7972742830340E-03
(PID.TID 0000.0001) %MON advcfl_uvel_max              =   2.6345289813982E-02
(PID.TID 0000.0001) %MON advcfl_vvel_max              =   1.4800499393591E-02
(PID.TID 0000.0001) %MON advcfl_wvel_max              =   6.8194929935569E-02
(PID.TID 0000.0001) %MON advcfl_W_hf_max              =   6.3043554835263E-02
(PID.TID 0000.0001) %MON pe_b_mean                    =   2.6607682527601E-04
(PID.TID 0000.0001) %MON ke_max                       =   2.1709610505929E-02
(PID.TID 0000.0001) %MON ke_mean                      =   1.9644583656222E-04
(PID.TID 0000.0001) %MON ke_vol                       =   1.3226782436723E+18
(PID.TID 0000.0001) %MON vort_r_min                   =  -4.7401879837507E-07
(PID.TID 0000.0001) %MON vort_r_max                   =   4.2954157571322E-07
(PID.TID 0000.0001) %MON vort_a_mean                  =  -2.5205769088986E-05
(PID.TID 0000.0001) %MON vort_a_sd                    =   7.3403647012833E-05
(PID.TID 0000.0001) %MON vort_p_mean                  =  -3.1758669173865E-05
(PID.TID 0000.0001) %MON vort_p_sd                    =   1.3126461475903E-04
(PID.TID 0000.0001) %MON surfExpan_theta_mean         =   7.0944011954783E-06
(PID.TID 0000.0001) %MON surfExpan_salt_mean          =   5.8048583837219E-08
(PID.TID 0000.0001) // =======================================================
(PID.TID 0000.0001) // End MONITOR dynamic field statistics
(PID.TID 0000.0001) // =======================================================
time,SST,SSS,fu,fv,Q,E-P,i0,i1,a,b =   3.5424E+06 -3.3315E-01  3.4460E+01 -1.7261E-02 -2.2918E-02  2.4385E+02  0.0000E+00     1     2  8.6667E-01  1.3333E-01
time,fu0,fu1,fu =   3.5424E+06 -3.5633E-02 -1.4435E-02 -1.7261E-02  8.666666666666667E-01  1.333333333333333E-01
 cg2d: Sum(rhs),rhsMax =   3.47789852472857E-12  8.57195997233518E+00
(PID.TID 0000.0001)                    cg2d_init_res =    3.46605062611175E-01
(PID.TID 0000.0001)                       cg2d_iters =    24
(PID.TID 0000.0001)                         cg2d_res =    6.74923884095640E-14
(PID.TID 0000.0001) // =======================================================
(PID.TID 0000.0001) // Begin MONITOR dynamic field statistics
(PID.TID 0000.0001) // =======================================================
(PID.TID 0000.0001) %MON time_tsnumber                =                    83
(PID.TID 0000.0001) %MON time_secondsf                =   3.5856000000000E+06
(PID.TID 0000.0001) %MON dynstat_eta_max              =   9.4152342175306E-01
(PID.TID 0000.0001) %MON dynstat_eta_min              =  -1.3587180180495E+00
(PID.TID 0000.0001) %MON dynstat_eta_mean             =  -1.8881871448198E-15
(PID.TID 0000.0001) %MON dynstat_eta_sd               =   4.5688083778099E-01
(PID.TID 0000.0001) %MON dynstat_eta_del2             =   2.5941822431341E-02
(PID.TID 0000.0001) %MON dynstat_uvel_max             =   1.9606330396077E-01
(PID.TID 0000.0001) %MON dynstat_uvel_min             =  -1.3359914256764E-01
(PID.TID 0000.0001) %MON dynstat_uvel_mean            =   1.6730108715429E-03
(PID.TID 0000.0001) %MON dynstat_uvel_sd              =   1.4819376535139E-02
(PID.TID 0000.0001) %MON dynstat_uvel_del2            =   3.3671992934073E-03
(PID.TID 0000.0001) %MON dynstat_vvel_max             =   1.5347577629131E-01
(PID.TID 0000.0001) %MON dynstat_vvel_min             =  -1.1334380774759E-01
(PID.TID 0000.0001) %MON dynstat_vvel_mean            =  -7.6482333094086E-04
(PID.TID 0000.0001) %MON dynstat_vvel_sd              =   1.4256287006172E-02
(PID.TID 0000.0001) %MON dynstat_vvel_del2            =   3.3753590685629E-03
(PID.TID 0000.0001) %MON dynstat_wvel_max             =   1.7648874942338E-04
(PID.TID 0000.0001) %MON dynstat_wvel_min             =  -1.5522050167574E-04
(PID.TID 0000.0001) %MON dynstat_wvel_mean            =   2.2916853075751E-23
(PID.TID 0000.0001) %MON dynstat_wvel_sd              =   1.8565471439171E-05
(PID.TID 0000.0001) %MON dynstat_wvel_del2            =   6.5106149297646E-06
(PID.TID 0000.0001) %MON dynstat_theta_max            =   2.9627505653899E+01
(PID.TID 0000.0001) %MON dynstat_theta_min            =  -2.0302493194086E+00
(PID.TID 0000.0001) %MON dynstat_theta_mean           =   3.5892071416307E+00
(PID.TID 0000.0001) %MON dynstat_theta_sd             =   4.3420119020891E+00
(PID.TID 0000.0001) %MON dynstat_theta_del2           =   1.3908442648542E-01
(PID.TID 0000.0001) %MON dynstat_salt_max             =   3.7389497039924E+01
(PID.TID 0000.0001) %MON dynstat_salt_min             =   2.9884567406066E+01
(PID.TID 0000.0001) %MON dynstat_salt_mean            =   3.4715962660512E+01
(PID.TID 0000.0001) %MON dynstat_salt_sd              =   2.9545602665360E-01
(PID.TID 0000.0001) %MON dynstat_salt_del2            =   2.5576005968048E-02
(PID.TID 0000.0001) %MON dynstat_sst_max              =   2.9627505653899E+01
(PID.TID 0000.0001) %MON dynstat_sst_min              =  -1.9281740382514E+00
(PID.TID 0000.0001) %MON dynstat_sst_mean             =   1.8642540277713E+01
(PID.TID 0000.0001) %MON dynstat_sst_sd               =   8.9235465547456E+00
(PID.TID 0000.0001) %MON dynstat_sst_del2             =   2.7033034744102E-01
(PID.TID 0000.0001) %MON dynstat_sss_max              =   3.7389495319556E+01
(PID.TID 0000.0001) %MON dynstat_sss_min              =   2.9884567406066E+01
(PID.TID 0000.0001) %MON dynstat_sss_mean             =   3.4840758537027E+01
(PID.TID 0000.0001) %MON dynstat_sss_sd               =   9.5810728892326E-01
(PID.TID 0000.0001) %MON dynstat_sss_del2             =   7.9590450118726E-02
(PID.TID 0000.0001) %MON extforcing_qnet_max          =   3.6386907755534E+02
(PID.TID 0000.0001) %MON extforcing_qnet_min          =  -1.7379204610189E+02
(PID.TID 0000.0001) %MON extforcing_qnet_mean         =  -1.4304887648557E+01
(PID.TID 0000.0001) %MON extforcing_qnet_sd           =   8.3311816502922E+01
(PID.TID 0000.0001) %MON extforcing_qnet_del2         =   8.6561731584245E+00
(PID.TID 0000.0001) %MON extforcing_qsw_max           =   0.0000000000000E+00
(PID.TID 0000.0001) %MON extforcing_qsw_min           =   0.0000000000000E+00
(PID.TID 0000.0001) %MON extforcing_qsw_mean          =   0.0000000000000E+00
(PID.TID 0000.0001) %MON extforcing_qsw_sd            =   0.0000000000000E+00
(PID.TID 0000.0001) %MON extforcing_qsw_del2          =   0.0000000000000E+00
(PID.TID 0000.0001) %MON extforcing_empmr_max         =   0.0000000000000E+00
(PID.TID 0000.0001) %MON extforcing_empmr_min         =   0.0000000000000E+00
(PID.TID 0000.0001) %MON extforcing_empmr_mean        =   0.0000000000000E+00
(PID.TID 0000.0001) %MON extforcing_empmr_sd          =   0.0000000000000E+00
(PID.TID 0000.0001) %MON extforcing_empmr_del2        =   0.0000000000000E+00
(PID.TID 0000.0001) %MON extforcing_fu_max            =   2.9908689260483E-01
(PID.TID 0000.0001) %MON extforcing_fu_min            =  -2.0909265577793E-01
(PID.TID 0000.0001) %MON extforcing_fu_mean           =   1.7413540754760E-02
(PID.TID 0000.0001) %MON extforcing_fu_sd             =   9.1865449563120E-02
(PID.TID 0000.0001) %MON extforcing_fu_del2           =   7.8044815856501E-03
(PID.TID 0000.0001) %MON extforcing_fv_max            =   1.9313710530599E-01
(PID.TID 0000.0001) %MON extforcing_fv_min            =  -1.8699165980021E-01
(PID.TID 0000.0001) %MON extforcing_fv_mean           =  -6.9556813140996E-03
(PID.TID 0000.0001) %MON extforcing_fv_sd             =   4.4663298961799E-02
(PID.TID 0000.0001) %MON extforcing_fv_del2           =   4.8312060800883E-03
(PID.TID 0000.0001) %MON advcfl_uvel_max              =   2.5628891015798E-02
(PID.TID 0000.0001) %MON advcfl_vvel_max              =   1.4908940938940E-02
(PID.TID 0000.0001) %MON advcfl_wvel_max              =   6.4285365277729E-02
(PID.TID 0000.0001) %MON advcfl_W_hf_max              =   6.1680156197157E-02
(PID.TID 0000.0001) %MON pe_b_mean                    =   2.6710811789745E-04
(PID.TID 0000.0001) %MON ke_max                       =   2.0978026888179E-02
(PID.TID 0000.0001) %MON ke_mean                      =   1.9255226972100E-04
(PID.TID 0000.0001) %MON ke_vol                       =   1.3226782436723E+18
(PID.TID 0000.0001) %MON vort_r_min                   =  -4.6515522402692E-07
(PID.TID 0000.0001) %MON vort_r_max                   =   4.3068849949038E-07
(PID.TID 0000.0001) %MON vort_a_mean                  =  -2.5205769096185E-05
(PID.TID 0000.0001) %MON vort_a_sd                    =   7.3403651451547E-05
(PID.TID 0000.0001) %MON vort_p_mean                  =  -3.1758669182936E-05
(PID.TID 0000.0001) %MON vort_p_sd                    =   1.3126457308098E-04
(PID.TID 0000.0001) %MON surfExpan_theta_mean         =   7.9401017404996E-06
(PID.TID 0000.0001) %MON surfExpan_salt_mean          =   2.4769703477252E-08
(PID.TID 0000.0001) // =======================================================
(PID.TID 0000.0001) // End MONITOR dynamic field statistics
(PID.TID 0000.0001) // =======================================================
time,SST,SSS,fu,fv,Q,E-P,i0,i1,a,b =   3.5856E+06 -3.5799E-01  3.4455E+01 -1.6908E-02 -2.2258E-02  2.4343E+02  0.0000E+00     1     2  8.8333E-01  1.1667E-01
time,fu0,fu1,fu =   3.5856E+06 -3.5633E-02 -1.4435E-02 -1.6908E-02  8.833333333333333E-01  1.166666666666667E-01
 cg2d: Sum(rhs),rhsMax =   3.83086617983253E-12  8.11762771956993E+00
(PID.TID 0000.0001)                    cg2d_init_res =    3.69574530958819E-01
(PID.TID 0000.0001)                       cg2d_iters =    24
(PID.TID 0000.0001)                         cg2d_res =    7.16366862952090E-14
(PID.TID 0000.0001) // =======================================================
(PID.TID 0000.0001) // Begin MONITOR dynamic field statistics
(PID.TID 0000.0001) // =======================================================
(PID.TID 0000.0001) %MON time_tsnumber                =                    84
(PID.TID 0000.0001) %MON time_secondsf                =   3.6288000000000E+06
(PID.TID 0000.0001) %MON dynstat_eta_max              =   8.9144304010728E-01
(PID.TID 0000.0001) %MON dynstat_eta_min              =  -1.3778739944536E+00
(PID.TID 0000.0001) %MON dynstat_eta_mean             =  -1.8271274753174E-15
(PID.TID 0000.0001) %MON dynstat_eta_sd               =   4.5783937498643E-01
(PID.TID 0000.0001) %MON dynstat_eta_del2             =   2.5921743999047E-02
(PID.TID 0000.0001) %MON dynstat_uvel_max             =   1.8942491768119E-01
(PID.TID 0000.0001) %MON dynstat_uvel_min             =  -1.3156586228375E-01
(PID.TID 0000.0001) %MON dynstat_uvel_mean            =   1.6870727538088E-03
(PID.TID 0000.0001) %MON dynstat_uvel_sd              =   1.4577940128033E-02
(PID.TID 0000.0001) %MON dynstat_uvel_del2            =   3.3642601907242E-03
(PID.TID 0000.0001) %MON dynstat_vvel_max             =   1.5480208237597E-01
(PID.TID 0000.0001) %MON dynstat_vvel_min             =  -1.1225946864333E-01
(PID.TID 0000.0001) %MON dynstat_vvel_mean            =  -7.0593085998491E-04
(PID.TID 0000.0001) %MON dynstat_vvel_sd              =   1.4225541035700E-02
(PID.TID 0000.0001) %MON dynstat_vvel_del2            =   3.3712035235351E-03
(PID.TID 0000.0001) %MON dynstat_wvel_max             =   1.7530304807653E-04
(PID.TID 0000.0001) %MON dynstat_wvel_min             =  -1.6480563896427E-04
(PID.TID 0000.0001) %MON dynstat_wvel_mean            =   1.4533981184987E-22
(PID.TID 0000.0001) %MON dynstat_wvel_sd              =   1.8484669924151E-05
(PID.TID 0000.0001) %MON dynstat_wvel_del2            =   6.5272846559588E-06
(PID.TID 0000.0001) %MON dynstat_theta_max            =   2.9639646017677E+01
(PID.TID 0000.0001) %MON dynstat_theta_min            =  -2.0296512341196E+00
(PID.TID 0000.0001) %MON dynstat_theta_mean           =   3.5891499115448E+00
(PID.TID 0000.0001) %MON dynstat_theta_sd             =   4.3420063567563E+00
(PID.TID 0000.0001) %MON dynstat_theta_del2           =   1.3919100039069E-01
(PID.TID 0000.0001) %MON dynstat_salt_max             =   3.7389433382704E+01
(PID.TID 0000.0001) %MON dynstat_salt_min             =   2.9884988142603E+01
(PID.TID 0000.0001) %MON dynstat_salt_mean            =   3.4715962942328E+01
(PID.TID 0000.0001) %MON dynstat_salt_sd              =   2.9544794282254E-01
(PID.TID 0000.0001) %MON dynstat_salt_del2            =   2.5566480528064E-02
(PID.TID 0000.0001) %MON dynstat_sst_max              =   2.9639646017677E+01
(PID.TID 0000.0001) %MON dynstat_sst_min              =  -1.9284727835636E+00
(PID.TID 0000.0001) %MON dynstat_sst_mean             =   1.8642821294965E+01
(PID.TID 0000.0001) %MON dynstat_sst_sd               =   8.9258987622498E+00
(PID.TID 0000.0001) %MON dynstat_sst_del2             =   2.7018573874020E-01
(PID.TID 0000.0001) %MON dynstat_sss_max              =   3.7389431710567E+01
(PID.TID 0000.0001) %MON dynstat_sss_min              =   2.9884988142603E+01
(PID.TID 0000.0001) %MON dynstat_sss_mean             =   3.4840421362451E+01
(PID.TID 0000.0001) %MON dynstat_sss_sd               =   9.5788930975917E-01
(PID.TID 0000.0001) %MON dynstat_sss_del2             =   7.9522378613710E-02
(PID.TID 0000.0001) %MON extforcing_qnet_max          =   3.6319197285970E+02
(PID.TID 0000.0001) %MON extforcing_qnet_min          =  -1.7367228647868E+02
(PID.TID 0000.0001) %MON extforcing_qnet_mean         =  -1.4262433064855E+01
(PID.TID 0000.0001) %MON extforcing_qnet_sd           =   8.2840765898159E+01
(PID.TID 0000.0001) %MON extforcing_qnet_del2         =   8.6447886687078E+00
(PID.TID 0000.0001) %MON extforcing_qsw_max           =   0.0000000000000E+00
(PID.TID 0000.0001) %MON extforcing_qsw_min           =   0.0000000000000E+00
(PID.TID 0000.0001) %MON extforcing_qsw_mean          =   0.0000000000000E+00
(PID.TID 0000.0001) %MON extforcing_qsw_sd            =   0.0000000000000E+00
(PID.TID 0000.0001) %MON extforcing_qsw_del2          =   0.0000000000000E+00
(PID.TID 0000.0001) %MON extforcing_empmr_max         =   0.0000000000000E+00
(PID.TID 0000.0001) %MON extforcing_empmr_min         =   0.0000000000000E+00
(PID.TID 0000.0001) %MON extforcing_empmr_mean        =   0.0000000000000E+00
(PID.TID 0000.0001) %MON extforcing_empmr_sd          =   0.0000000000000E+00
(PID.TID 0000.0001) %MON extforcing_empmr_del2        =   0.0000000000000E+00
(PID.TID 0000.0001) %MON extforcing_fu_max            =   2.9978047162294E-01
(PID.TID 0000.0001) %MON extforcing_fu_min            =  -2.0992261767387E-01
(PID.TID 0000.0001) %MON extforcing_fu_mean           =   1.7440690862494E-02
(PID.TID 0000.0001) %MON extforcing_fu_sd             =   9.1994806245679E-02
(PID.TID 0000.0001) %MON extforcing_fu_del2           =   7.8393440213817E-03
(PID.TID 0000.0001) %MON extforcing_fv_max            =   1.9419308776657E-01
(PID.TID 0000.0001) %MON extforcing_fv_min            =  -1.8857760926088E-01
(PID.TID 0000.0001) %MON extforcing_fv_mean           =  -6.9883117674572E-03
(PID.TID 0000.0001) %MON extforcing_fv_sd             =   4.4697997518101E-02
(PID.TID 0000.0001) %MON extforcing_fv_del2           =   4.8658253692888E-03
(PID.TID 0000.0001) %MON advcfl_uvel_max              =   2.4761138228596E-02
(PID.TID 0000.0001) %MON advcfl_vvel_max              =   1.5037780939369E-02
(PID.TID 0000.0001) %MON advcfl_wvel_max              =   7.5766800520741E-02
(PID.TID 0000.0001) %MON advcfl_W_hf_max              =   7.2846678249129E-02
(PID.TID 0000.0001) %MON pe_b_mean                    =   2.6823008067948E-04
(PID.TID 0000.0001) %MON ke_max                       =   2.0071329328108E-02
(PID.TID 0000.0001) %MON ke_mean                      =   1.8891716992416E-04
(PID.TID 0000.0001) %MON ke_vol                       =   1.3226782436723E+18
(PID.TID 0000.0001) %MON vort_r_min                   =  -4.5480998325981E-07
(PID.TID 0000.0001) %MON vort_r_max                   =   4.2960373497521E-07
(PID.TID 0000.0001) %MON vort_a_mean                  =  -2.5205769101727E-05
(PID.TID 0000.0001) %MON vort_a_sd                    =   7.3403653399335E-05
(PID.TID 0000.0001) %MON vort_p_mean                  =  -3.1758669189919E-05
(PID.TID 0000.0001) %MON vort_p_sd                    =   1.3126452592915E-04
(PID.TID 0000.0001) %MON surfExpan_theta_mean         =   8.7914239414190E-06
(PID.TID 0000.0001) %MON surfExpan_salt_mean          =   2.1518381949830E-09
(PID.TID 0000.0001) // =======================================================
(PID.TID 0000.0001) // End MONITOR dynamic field statistics
(PID.TID 0000.0001) // =======================================================
time,SST,SSS,fu,fv,Q,E-P,i0,i1,a,b =   3.6288E+06 -3.8283E-01  3.4450E+01 -1.6555E-02 -2.1598E-02  2.4301E+02  0.0000E+00     1     2  9.0000E-01  1.0000E-01
time,fu0,fu1,fu =   3.6288E+06 -3.5633E-02 -1.4435E-02 -1.6555E-02  9.000000000000000E-01  9.999999999999998E-02
 cg2d: Sum(rhs),rhsMax =   3.56802087875252E-12  8.02199626746557E+00
(PID.TID 0000.0001)                    cg2d_init_res =    3.80071258298501E-01
(PID.TID 0000.0001)                       cg2d_iters =    24
(PID.TID 0000.0001)                         cg2d_res =    7.33341189431627E-14
(PID.TID 0000.0001) // =======================================================
(PID.TID 0000.0001) // Begin MONITOR dynamic field statistics
(PID.TID 0000.0001) // =======================================================
(PID.TID 0000.0001) %MON time_tsnumber                =                    85
(PID.TID 0000.0001) %MON time_secondsf                =   3.6720000000000E+06
(PID.TID 0000.0001) %MON dynstat_eta_max              =   8.3819256018026E-01
(PID.TID 0000.0001) %MON dynstat_eta_min              =  -1.3970816631169E+00
(PID.TID 0000.0001) %MON dynstat_eta_mean             =  -2.0524963806085E-15
(PID.TID 0000.0001) %MON dynstat_eta_sd               =   4.5888887411817E-01
(PID.TID 0000.0001) %MON dynstat_eta_del2             =   2.5903282368402E-02
(PID.TID 0000.0001) %MON dynstat_uvel_max             =   1.8175019977741E-01
(PID.TID 0000.0001) %MON dynstat_uvel_min             =  -1.3166358147741E-01
(PID.TID 0000.0001) %MON dynstat_uvel_mean            =   1.6893532023960E-03
(PID.TID 0000.0001) %MON dynstat_uvel_sd              =   1.4350293799836E-02
(PID.TID 0000.0001) %MON dynstat_uvel_del2            =   3.3613204554910E-03
(PID.TID 0000.0001) %MON dynstat_vvel_max             =   1.5594912852143E-01
(PID.TID 0000.0001) %MON dynstat_vvel_min             =  -1.1108897362763E-01
(PID.TID 0000.0001) %MON dynstat_vvel_mean            =  -6.4967669863858E-04
(PID.TID 0000.0001) %MON dynstat_vvel_sd              =   1.4199929739529E-02
(PID.TID 0000.0001) %MON dynstat_vvel_del2            =   3.3697802335946E-03
(PID.TID 0000.0001) %MON dynstat_wvel_max             =   1.7404647902622E-04
(PID.TID 0000.0001) %MON dynstat_wvel_min             =  -1.7285254555317E-04
(PID.TID 0000.0001) %MON dynstat_wvel_mean            =  -3.6495511422650E-23
(PID.TID 0000.0001) %MON dynstat_wvel_sd              =   1.8452094741632E-05
(PID.TID 0000.0001) %MON dynstat_wvel_del2            =   6.5426526328337E-06
(PID.TID 0000.0001) %MON dynstat_theta_max            =   2.9650813468061E+01
(PID.TID 0000.0001) %MON dynstat_theta_min            =  -2.0289477571564E+00
(PID.TID 0000.0001) %MON dynstat_theta_mean           =   3.5890832041832E+00
(PID.TID 0000.0001) %MON dynstat_theta_sd             =   4.3419678111300E+00
(PID.TID 0000.0001) %MON dynstat_theta_del2           =   1.3928855507513E-01
(PID.TID 0000.0001) %MON dynstat_salt_max             =   3.7389325338949E+01
(PID.TID 0000.0001) %MON dynstat_salt_min             =   2.9885355738286E+01
(PID.TID 0000.0001) %MON dynstat_salt_mean            =   3.4715963418695E+01
(PID.TID 0000.0001) %MON dynstat_salt_sd              =   2.9544217701740E-01
(PID.TID 0000.0001) %MON dynstat_salt_del2            =   2.5554874223120E-02
(PID.TID 0000.0001) %MON dynstat_sst_max              =   2.9650813468061E+01
(PID.TID 0000.0001) %MON dynstat_sst_min              =  -1.9289066801863E+00
(PID.TID 0000.0001) %MON dynstat_sst_mean             =   1.8643158896875E+01
(PID.TID 0000.0001) %MON dynstat_sst_sd               =   8.9280482761774E+00
(PID.TID 0000.0001) %MON dynstat_sst_del2             =   2.7003654644927E-01
(PID.TID 0000.0001) %MON dynstat_sss_max              =   3.7389323720914E+01
(PID.TID 0000.0001) %MON dynstat_sss_min              =   2.9885355738286E+01
(PID.TID 0000.0001) %MON dynstat_sss_mean             =   3.4840108735798E+01
(PID.TID 0000.0001) %MON dynstat_sss_sd               =   9.5768512991799E-01
(PID.TID 0000.0001) %MON dynstat_sss_del2             =   7.9447891989619E-02
(PID.TID 0000.0001) %MON extforcing_qnet_max          =   3.6251486816406E+02
(PID.TID 0000.0001) %MON extforcing_qnet_min          =  -1.7355252685547E+02
(PID.TID 0000.0001) %MON extforcing_qnet_mean         =  -1.4219978481153E+01
(PID.TID 0000.0001) %MON extforcing_qnet_sd           =   8.2371696760825E+01
(PID.TID 0000.0001) %MON extforcing_qnet_del2         =   8.6338162017995E+00
(PID.TID 0000.0001) %MON extforcing_qsw_max           =   0.0000000000000E+00
(PID.TID 0000.0001) %MON extforcing_qsw_min           =   0.0000000000000E+00
(PID.TID 0000.0001) %MON extforcing_qsw_mean          =   0.0000000000000E+00
(PID.TID 0000.0001) %MON extforcing_qsw_sd            =   0.0000000000000E+00
(PID.TID 0000.0001) %MON extforcing_qsw_del2          =   0.0000000000000E+00
(PID.TID 0000.0001) %MON extforcing_empmr_max         =   0.0000000000000E+00
(PID.TID 0000.0001) %MON extforcing_empmr_min         =   0.0000000000000E+00
(PID.TID 0000.0001) %MON extforcing_empmr_mean        =   0.0000000000000E+00
(PID.TID 0000.0001) %MON extforcing_empmr_sd          =   0.0000000000000E+00
(PID.TID 0000.0001) %MON extforcing_empmr_del2        =   0.0000000000000E+00
(PID.TID 0000.0001) %MON extforcing_fu_max            =   3.0047405064106E-01
(PID.TID 0000.0001) %MON extforcing_fu_min            =  -2.1116244494915E-01
(PID.TID 0000.0001) %MON extforcing_fu_mean           =   1.7467840970229E-02
(PID.TID 0000.0001) %MON extforcing_fu_sd             =   9.2128273679121E-02
(PID.TID 0000.0001) %MON extforcing_fu_del2           =   7.8754235218697E-03
(PID.TID 0000.0001) %MON extforcing_fv_max            =   1.9524907022715E-01
(PID.TID 0000.0001) %MON extforcing_fv_min            =  -1.9016355872154E-01
(PID.TID 0000.0001) %MON extforcing_fv_mean           =  -7.0209422208148E-03
(PID.TID 0000.0001) %MON extforcing_fv_sd             =   4.4736678888232E-02
(PID.TID 0000.0001) %MON extforcing_fv_del2           =   4.9012519632062E-03
(PID.TID 0000.0001) %MON advcfl_uvel_max              =   2.3757918835882E-02
(PID.TID 0000.0001) %MON advcfl_vvel_max              =   1.5149207274196E-02
(PID.TID 0000.0001) %MON advcfl_wvel_max              =   8.5983890730227E-02
(PID.TID 0000.0001) %MON advcfl_W_hf_max              =   8.2131032588174E-02
(PID.TID 0000.0001) %MON pe_b_mean                    =   2.6946121063392E-04
(PID.TID 0000.0001) %MON ke_max                       =   1.9010005555569E-02
(PID.TID 0000.0001) %MON ke_mean                      =   1.8556774551179E-04
(PID.TID 0000.0001) %MON ke_vol                       =   1.3226782436723E+18
(PID.TID 0000.0001) %MON vort_r_min                   =  -4.4311033270917E-07
(PID.TID 0000.0001) %MON vort_r_max                   =   4.2635215468629E-07
(PID.TID 0000.0001) %MON vort_a_mean                  =  -2.5205769105367E-05
(PID.TID 0000.0001) %MON vort_a_sd                    =   7.3403652887667E-05
(PID.TID 0000.0001) %MON vort_p_mean                  =  -3.1758669194505E-05
(PID.TID 0000.0001) %MON vort_p_sd                    =   1.3126447385167E-04
(PID.TID 0000.0001) %MON surfExpan_theta_mean         =   9.6283153557636E-06
(PID.TID 0000.0001) %MON surfExpan_salt_mean          =  -9.1920158918670E-09
(PID.TID 0000.0001) // =======================================================
(PID.TID 0000.0001) // End MONITOR dynamic field statistics
(PID.TID 0000.0001) // =======================================================
time,SST,SSS,fu,fv,Q,E-P,i0,i1,a,b =   3.6720E+06 -4.0767E-01  3.4446E+01 -1.6201E-02 -2.0937E-02  2.4259E+02  0.0000E+00     1     2  9.1667E-01  8.3333E-02
time,fu0,fu1,fu =   3.6720E+06 -3.5633E-02 -1.4435E-02 -1.6201E-02  9.166666666666666E-01  8.333333333333337E-02
 cg2d: Sum(rhs),rhsMax =   3.86241039151969E-12  7.98965232758869E+00
(PID.TID 0000.0001)                    cg2d_init_res =    3.88422774766058E-01
(PID.TID 0000.0001)                       cg2d_iters =    24
(PID.TID 0000.0001)                         cg2d_res =    7.40579761182450E-14
(PID.TID 0000.0001) // =======================================================
(PID.TID 0000.0001) // Begin MONITOR dynamic field statistics
(PID.TID 0000.0001) // =======================================================
(PID.TID 0000.0001) %MON time_tsnumber                =                    86
(PID.TID 0000.0001) %MON time_secondsf                =   3.7152000000000E+06
(PID.TID 0000.0001) %MON dynstat_eta_max              =   8.2210965183541E-01
(PID.TID 0000.0001) %MON dynstat_eta_min              =  -1.4158895138320E+00
(PID.TID 0000.0001) %MON dynstat_eta_mean             =  -1.8655816240712E-15
(PID.TID 0000.0001) %MON dynstat_eta_sd               =   4.6004384287076E-01
(PID.TID 0000.0001) %MON dynstat_eta_del2             =   2.5865617318777E-02
(PID.TID 0000.0001) %MON dynstat_uvel_max             =   1.7317697986035E-01
(PID.TID 0000.0001) %MON dynstat_uvel_min             =  -1.3170476414546E-01
(PID.TID 0000.0001) %MON dynstat_uvel_mean            =   1.6805784605109E-03
(PID.TID 0000.0001) %MON dynstat_uvel_sd              =   1.4137929943508E-02
(PID.TID 0000.0001) %MON dynstat_uvel_del2            =   3.3575042130923E-03
(PID.TID 0000.0001) %MON dynstat_vvel_max             =   1.5688626687480E-01
(PID.TID 0000.0001) %MON dynstat_vvel_min             =  -1.0983922770791E-01
(PID.TID 0000.0001) %MON dynstat_vvel_mean            =  -5.9532722703330E-04
(PID.TID 0000.0001) %MON dynstat_vvel_sd              =   1.4180132879859E-02
(PID.TID 0000.0001) %MON dynstat_vvel_del2            =   3.3697747789765E-03
(PID.TID 0000.0001) %MON dynstat_wvel_max             =   1.7271288096597E-04
(PID.TID 0000.0001) %MON dynstat_wvel_min             =  -1.7927722690223E-04
(PID.TID 0000.0001) %MON dynstat_wvel_mean            =  -1.5758812866954E-22
(PID.TID 0000.0001) %MON dynstat_wvel_sd              =   1.8460877608177E-05
(PID.TID 0000.0001) %MON dynstat_wvel_del2            =   6.5496319219469E-06
(PID.TID 0000.0001) %MON dynstat_theta_max            =   2.9660935607810E+01
(PID.TID 0000.0001) %MON dynstat_theta_min            =  -2.0281411826656E+00
(PID.TID 0000.0001) %MON dynstat_theta_mean           =   3.5890073109502E+00
(PID.TID 0000.0001) %MON dynstat_theta_sd             =   4.3418950018147E+00
(PID.TID 0000.0001) %MON dynstat_theta_del2           =   1.3942366811015E-01
(PID.TID 0000.0001) %MON dynstat_salt_max             =   3.7389169084656E+01
(PID.TID 0000.0001) %MON dynstat_salt_min             =   2.9885687035702E+01
(PID.TID 0000.0001) %MON dynstat_salt_mean            =   3.4715963957392E+01
(PID.TID 0000.0001) %MON dynstat_salt_sd              =   2.9543844492164E-01
(PID.TID 0000.0001) %MON dynstat_salt_del2            =   2.5549975561178E-02
(PID.TID 0000.0001) %MON dynstat_sst_max              =   2.9660935607810E+01
(PID.TID 0000.0001) %MON dynstat_sst_min              =  -1.9294405591106E+00
(PID.TID 0000.0001) %MON dynstat_sst_mean             =   1.8643806588553E+01
(PID.TID 0000.0001) %MON dynstat_sst_sd               =   8.9295110118920E+00
(PID.TID 0000.0001) %MON dynstat_sst_del2             =   2.6998964506722E-01
(PID.TID 0000.0001) %MON dynstat_sss_max              =   3.7389167525121E+01
(PID.TID 0000.0001) %MON dynstat_sss_min              =   2.9885687035702E+01
(PID.TID 0000.0001) %MON dynstat_sss_mean             =   3.4839842007775E+01
(PID.TID 0000.0001) %MON dynstat_sss_sd               =   9.5744718482730E-01
(PID.TID 0000.0001) %MON dynstat_sss_del2             =   7.9398053660573E-02
(PID.TID 0000.0001) %MON extforcing_qnet_max          =   3.6183776346842E+02
(PID.TID 0000.0001) %MON extforcing_qnet_min          =  -1.7343276723226E+02
(PID.TID 0000.0001) %MON extforcing_qnet_mean         =  -1.4177523897452E+01
(PID.TID 0000.0001) %MON extforcing_qnet_sd           =   8.1904643134608E+01
(PID.TID 0000.0001) %MON extforcing_qnet_del2         =   8.6232840228271E+00
(PID.TID 0000.0001) %MON extforcing_qsw_max           =   0.0000000000000E+00
(PID.TID 0000.0001) %MON extforcing_qsw_min           =   0.0000000000000E+00
(PID.TID 0000.0001) %MON extforcing_qsw_mean          =   0.0000000000000E+00
(PID.TID 0000.0001) %MON extforcing_qsw_sd            =   0.0000000000000E+00
(PID.TID 0000.0001) %MON extforcing_qsw_del2          =   0.0000000000000E+00
(PID.TID 0000.0001) %MON extforcing_empmr_max         =   0.0000000000000E+00
(PID.TID 0000.0001) %MON extforcing_empmr_min         =   0.0000000000000E+00
(PID.TID 0000.0001) %MON extforcing_empmr_mean        =   0.0000000000000E+00
(PID.TID 0000.0001) %MON extforcing_empmr_sd          =   0.0000000000000E+00
(PID.TID 0000.0001) %MON extforcing_empmr_del2        =   0.0000000000000E+00
(PID.TID 0000.0001) %MON extforcing_fu_max            =   3.0116762965918E-01
(PID.TID 0000.0001) %MON extforcing_fu_min            =  -2.1257831404607E-01
(PID.TID 0000.0001) %MON extforcing_fu_mean           =   1.7494991077963E-02
(PID.TID 0000.0001) %MON extforcing_fu_sd             =   9.2265834024189E-02
(PID.TID 0000.0001) %MON extforcing_fu_del2           =   7.9124343581133E-03
(PID.TID 0000.0001) %MON extforcing_fv_max            =   1.9630505268772E-01
(PID.TID 0000.0001) %MON extforcing_fv_min            =  -1.9174950818221E-01
(PID.TID 0000.0001) %MON extforcing_fv_mean           =  -7.0535726741724E-03
(PID.TID 0000.0001) %MON extforcing_fv_sd             =   4.4779332750867E-02
(PID.TID 0000.0001) %MON extforcing_fv_del2           =   4.9376675394052E-03
(PID.TID 0000.0001) %MON advcfl_uvel_max              =   2.2637249570038E-02
(PID.TID 0000.0001) %MON advcfl_vvel_max              =   1.5240242750279E-02
(PID.TID 0000.0001) %MON advcfl_wvel_max              =   9.4075328417993E-02
(PID.TID 0000.0001) %MON advcfl_W_hf_max              =   8.9548862146508E-02
(PID.TID 0000.0001) %MON pe_b_mean                    =   2.7081932126531E-04
(PID.TID 0000.0001) %MON ke_max                       =   1.7817842027374E-02
(PID.TID 0000.0001) %MON ke_mean                      =   1.8252315344553E-04
(PID.TID 0000.0001) %MON ke_vol                       =   1.3226782436723E+18
(PID.TID 0000.0001) %MON vort_r_min                   =  -4.4574577276881E-07
(PID.TID 0000.0001) %MON vort_r_max                   =   4.2107110445788E-07
(PID.TID 0000.0001) %MON vort_a_mean                  =  -2.5205769106977E-05
(PID.TID 0000.0001) %MON vort_a_sd                    =   7.3403649994715E-05
(PID.TID 0000.0001) %MON vort_p_mean                  =  -3.1758669196534E-05
(PID.TID 0000.0001) %MON vort_p_sd                    =   1.3126441761629E-04
(PID.TID 0000.0001) %MON surfExpan_theta_mean         =   1.0431660678592E-05
(PID.TID 0000.0001) %MON surfExpan_salt_mean          =  -9.3440433036772E-09
(PID.TID 0000.0001) // =======================================================
(PID.TID 0000.0001) // End MONITOR dynamic field statistics
(PID.TID 0000.0001) // =======================================================
time,SST,SSS,fu,fv,Q,E-P,i0,i1,a,b =   3.7152E+06 -4.3250E-01  3.4441E+01 -1.5848E-02 -2.0277E-02  2.4217E+02  0.0000E+00     1     2  9.3333E-01  6.6667E-02
time,fu0,fu1,fu =   3.7152E+06 -3.5633E-02 -1.4435E-02 -1.5848E-02  9.333333333333333E-01  6.666666666666665E-02
 cg2d: Sum(rhs),rhsMax =   3.73438779899260E-12  7.95826434668644E+00
(PID.TID 0000.0001)                    cg2d_init_res =    3.95970753455775E-01
(PID.TID 0000.0001)                       cg2d_iters =    24
(PID.TID 0000.0001)                         cg2d_res =    7.29046987515902E-14
(PID.TID 0000.0001) // =======================================================
(PID.TID 0000.0001) // Begin MONITOR dynamic field statistics
(PID.TID 0000.0001) // =======================================================
(PID.TID 0000.0001) %MON time_tsnumber                =                    87
(PID.TID 0000.0001) %MON time_secondsf                =   3.7584000000000E+06
(PID.TID 0000.0001) %MON dynstat_eta_max              =   8.1918989080158E-01
(PID.TID 0000.0001) %MON dynstat_eta_min              =  -1.4338195050522E+00
(PID.TID 0000.0001) %MON dynstat_eta_mean             =  -1.9665175736798E-15
(PID.TID 0000.0001) %MON dynstat_eta_sd               =   4.6131596113087E-01
(PID.TID 0000.0001) %MON dynstat_eta_del2             =   2.5829130723077E-02
(PID.TID 0000.0001) %MON dynstat_uvel_max             =   1.6385696196784E-01
(PID.TID 0000.0001) %MON dynstat_uvel_min             =  -1.3169775946385E-01
(PID.TID 0000.0001) %MON dynstat_uvel_mean            =   1.6616956079534E-03
(PID.TID 0000.0001) %MON dynstat_uvel_sd              =   1.3942405480951E-02
(PID.TID 0000.0001) %MON dynstat_uvel_del2            =   3.3531955599540E-03
(PID.TID 0000.0001) %MON dynstat_vvel_max             =   1.5761124685034E-01
(PID.TID 0000.0001) %MON dynstat_vvel_min             =  -1.1000362967642E-01
(PID.TID 0000.0001) %MON dynstat_vvel_mean            =  -5.4205020448091E-04
(PID.TID 0000.0001) %MON dynstat_vvel_sd              =   1.4166337315459E-02
(PID.TID 0000.0001) %MON dynstat_vvel_del2            =   3.3720079539955E-03
(PID.TID 0000.0001) %MON dynstat_wvel_max             =   1.7142002879896E-04
(PID.TID 0000.0001) %MON dynstat_wvel_min             =  -1.8402885466966E-04
(PID.TID 0000.0001) %MON dynstat_wvel_mean            =   2.8785838218509E-22
(PID.TID 0000.0001) %MON dynstat_wvel_sd              =   1.8502327514116E-05
(PID.TID 0000.0001) %MON dynstat_wvel_del2            =   6.5534306393941E-06
(PID.TID 0000.0001) %MON dynstat_theta_max            =   2.9669969581532E+01
(PID.TID 0000.0001) %MON dynstat_theta_min            =  -2.0272359027778E+00
(PID.TID 0000.0001) %MON dynstat_theta_mean           =   3.5889226897445E+00
(PID.TID 0000.0001) %MON dynstat_theta_sd             =   4.3417903110142E+00
(PID.TID 0000.0001) %MON dynstat_theta_del2           =   1.3950783803467E-01
(PID.TID 0000.0001) %MON dynstat_salt_max             =   3.7388962458209E+01
(PID.TID 0000.0001) %MON dynstat_salt_min             =   2.9885997236518E+01
(PID.TID 0000.0001) %MON dynstat_salt_mean            =   3.4715964430717E+01
(PID.TID 0000.0001) %MON dynstat_salt_sd              =   2.9543699523253E-01
(PID.TID 0000.0001) %MON dynstat_salt_del2            =   2.5535211978841E-02
(PID.TID 0000.0001) %MON dynstat_sst_max              =   2.9669969581532E+01
(PID.TID 0000.0001) %MON dynstat_sst_min              =  -1.9300332724205E+00
(PID.TID 0000.0001) %MON dynstat_sst_mean             =   1.8644232369970E+01
(PID.TID 0000.0001) %MON dynstat_sst_sd               =   8.9312559149266E+00
(PID.TID 0000.0001) %MON dynstat_sst_del2             =   2.6977392715538E-01
(PID.TID 0000.0001) %MON dynstat_sss_max              =   3.7388960960106E+01
(PID.TID 0000.0001) %MON dynstat_sss_min              =   2.9885997236518E+01
(PID.TID 0000.0001) %MON dynstat_sss_mean             =   3.4839548410850E+01
(PID.TID 0000.0001) %MON dynstat_sss_sd               =   9.5726186142585E-01
(PID.TID 0000.0001) %MON dynstat_sss_del2             =   7.9309006794900E-02
(PID.TID 0000.0001) %MON extforcing_qnet_max          =   3.6116065877279E+02
(PID.TID 0000.0001) %MON extforcing_qnet_min          =  -1.7331300760905E+02
(PID.TID 0000.0001) %MON extforcing_qnet_mean         =  -1.4135069313750E+01
(PID.TID 0000.0001) %MON extforcing_qnet_sd           =   8.1439639696185E+01
(PID.TID 0000.0001) %MON extforcing_qnet_del2         =   8.6132684050068E+00
(PID.TID 0000.0001) %MON extforcing_qsw_max           =   0.0000000000000E+00
(PID.TID 0000.0001) %MON extforcing_qsw_min           =   0.0000000000000E+00
(PID.TID 0000.0001) %MON extforcing_qsw_mean          =   0.0000000000000E+00
(PID.TID 0000.0001) %MON extforcing_qsw_sd            =   0.0000000000000E+00
(PID.TID 0000.0001) %MON extforcing_qsw_del2          =   0.0000000000000E+00
(PID.TID 0000.0001) %MON extforcing_empmr_max         =   0.0000000000000E+00
(PID.TID 0000.0001) %MON extforcing_empmr_min         =   0.0000000000000E+00
(PID.TID 0000.0001) %MON extforcing_empmr_mean        =   0.0000000000000E+00
(PID.TID 0000.0001) %MON extforcing_empmr_sd          =   0.0000000000000E+00
(PID.TID 0000.0001) %MON extforcing_empmr_del2        =   0.0000000000000E+00
(PID.TID 0000.0001) %MON extforcing_fu_max            =   3.0186120867729E-01
(PID.TID 0000.0001) %MON extforcing_fu_min            =  -2.1399418314298E-01
(PID.TID 0000.0001) %MON extforcing_fu_mean           =   1.7522141185698E-02
(PID.TID 0000.0001) %MON extforcing_fu_sd             =   9.2407469002415E-02
(PID.TID 0000.0001) %MON extforcing_fu_del2           =   7.9515375539396E-03
(PID.TID 0000.0001) %MON extforcing_fv_max            =   1.9736103514830E-01
(PID.TID 0000.0001) %MON extforcing_fv_min            =  -1.9333545764287E-01
(PID.TID 0000.0001) %MON extforcing_fv_mean           =  -7.0862031275300E-03
(PID.TID 0000.0001) %MON extforcing_fv_sd             =   4.4825947766004E-02
(PID.TID 0000.0001) %MON extforcing_fv_del2           =   4.9749988873977E-03
(PID.TID 0000.0001) %MON advcfl_uvel_max              =   2.1418960792856E-02
(PID.TID 0000.0001) %MON advcfl_vvel_max              =   1.5310668741263E-02
(PID.TID 0000.0001) %MON advcfl_wvel_max              =   9.9921286936048E-02
(PID.TID 0000.0001) %MON advcfl_W_hf_max              =   9.5169391191065E-02
(PID.TID 0000.0001) %MON pe_b_mean                    =   2.7231913714738E-04
(PID.TID 0000.0001) %MON ke_max                       =   1.6521033142186E-02
(PID.TID 0000.0001) %MON ke_mean                      =   1.7979734625233E-04
(PID.TID 0000.0001) %MON ke_vol                       =   1.3226782436723E+18
(PID.TID 0000.0001) %MON vort_r_min                   =  -4.5080182019482E-07
(PID.TID 0000.0001) %MON vort_r_max                   =   4.1396773253245E-07
(PID.TID 0000.0001) %MON vort_a_mean                  =  -2.5205769106560E-05
(PID.TID 0000.0001) %MON vort_a_sd                    =   7.3403644845361E-05
(PID.TID 0000.0001) %MON vort_p_mean                  =  -3.1758669196009E-05
(PID.TID 0000.0001) %MON vort_p_sd                    =   1.3126435817700E-04
(PID.TID 0000.0001) %MON surfExpan_theta_mean         =   1.1187627431347E-05
(PID.TID 0000.0001) %MON surfExpan_salt_mean          =   1.4858362040900E-09
(PID.TID 0000.0001) // =======================================================
(PID.TID 0000.0001) // End MONITOR dynamic field statistics
(PID.TID 0000.0001) // =======================================================
time,SST,SSS,fu,fv,Q,E-P,i0,i1,a,b =   3.7584E+06 -4.5734E-01  3.4436E+01 -1.5495E-02 -1.9617E-02  2.4175E+02  0.0000E+00     1     2  9.5000E-01  5.0000E-02
time,fu0,fu1,fu =   3.7584E+06 -3.5633E-02 -1.4435E-02 -1.5495E-02  9.500000000000000E-01  5.000000000000004E-02
 cg2d: Sum(rhs),rhsMax =   4.57495152872411E-12  7.92999023840161E+00
(PID.TID 0000.0001)                    cg2d_init_res =    4.01454962665631E-01
(PID.TID 0000.0001)                       cg2d_iters =    24
(PID.TID 0000.0001)                         cg2d_res =    3.20577988096116E-14
(PID.TID 0000.0001) // =======================================================
(PID.TID 0000.0001) // Begin MONITOR dynamic field statistics
(PID.TID 0000.0001) // =======================================================
(PID.TID 0000.0001) %MON time_tsnumber                =                    88
(PID.TID 0000.0001) %MON time_secondsf                =   3.8016000000000E+06
(PID.TID 0000.0001) %MON dynstat_eta_max              =   8.1670640960850E-01
(PID.TID 0000.0001) %MON dynstat_eta_min              =  -1.4540178526470E+00
(PID.TID 0000.0001) %MON dynstat_eta_mean             =  -2.1528521572276E-15
(PID.TID 0000.0001) %MON dynstat_eta_sd               =   4.6271246380513E-01
(PID.TID 0000.0001) %MON dynstat_eta_del2             =   2.5810966848889E-02
(PID.TID 0000.0001) %MON dynstat_uvel_max             =   1.5395303494514E-01
(PID.TID 0000.0001) %MON dynstat_uvel_min             =  -1.3165137710722E-01
(PID.TID 0000.0001) %MON dynstat_uvel_mean            =   1.6338504866535E-03
(PID.TID 0000.0001) %MON dynstat_uvel_sd              =   1.3765492623642E-02
(PID.TID 0000.0001) %MON dynstat_uvel_del2            =   3.3492272267112E-03
(PID.TID 0000.0001) %MON dynstat_vvel_max             =   1.5812295335694E-01
(PID.TID 0000.0001) %MON dynstat_vvel_min             =  -1.1183452807849E-01
(PID.TID 0000.0001) %MON dynstat_vvel_mean            =  -4.8896152366745E-04
(PID.TID 0000.0001) %MON dynstat_vvel_sd              =   1.4158261873829E-02
(PID.TID 0000.0001) %MON dynstat_vvel_del2            =   3.3748150578142E-03
(PID.TID 0000.0001) %MON dynstat_wvel_max             =   1.7061265545419E-04
(PID.TID 0000.0001) %MON dynstat_wvel_min             =  -1.8708963666662E-04
(PID.TID 0000.0001) %MON dynstat_wvel_mean            =  -4.6011467303848E-23
(PID.TID 0000.0001) %MON dynstat_wvel_sd              =   1.8566288630409E-05
(PID.TID 0000.0001) %MON dynstat_wvel_del2            =   6.5596400794455E-06
(PID.TID 0000.0001) %MON dynstat_theta_max            =   2.9677901755341E+01
(PID.TID 0000.0001) %MON dynstat_theta_min            =  -2.0262384781175E+00
(PID.TID 0000.0001) %MON dynstat_theta_mean           =   3.5888300271370E+00
(PID.TID 0000.0001) %MON dynstat_theta_sd             =   4.3416538759021E+00
(PID.TID 0000.0001) %MON dynstat_theta_del2           =   1.3958096744312E-01
(PID.TID 0000.0001) %MON dynstat_salt_max             =   3.7388704888493E+01
(PID.TID 0000.0001) %MON dynstat_salt_min             =   2.9886298966876E+01
(PID.TID 0000.0001) %MON dynstat_salt_mean            =   3.4715964718877E+01
(PID.TID 0000.0001) %MON dynstat_salt_sd              =   2.9543743381693E-01
(PID.TID 0000.0001) %MON dynstat_salt_del2            =   2.5519388265596E-02
(PID.TID 0000.0001) %MON dynstat_sst_max              =   2.9677901755341E+01
(PID.TID 0000.0001) %MON dynstat_sst_min              =  -1.9306402211349E+00
(PID.TID 0000.0001) %MON dynstat_sst_mean             =   1.8644852375979E+01
(PID.TID 0000.0001) %MON dynstat_sst_sd               =   8.9326598636367E+00
(PID.TID 0000.0001) %MON dynstat_sst_del2             =   2.6955207171000E-01
(PID.TID 0000.0001) %MON dynstat_sss_max              =   3.7388703453315E+01
(PID.TID 0000.0001) %MON dynstat_sss_min              =   2.9886298966876E+01
(PID.TID 0000.0001) %MON dynstat_sss_mean             =   3.4839288081800E+01
(PID.TID 0000.0001) %MON dynstat_sss_sd               =   9.5707161455213E-01
(PID.TID 0000.0001) %MON dynstat_sss_del2             =   7.9219067445735E-02
(PID.TID 0000.0001) %MON extforcing_qnet_max          =   3.6048355407715E+02
(PID.TID 0000.0001) %MON extforcing_qnet_min          =  -1.7319324798584E+02
(PID.TID 0000.0001) %MON extforcing_qnet_mean         =  -1.4092614730048E+01
(PID.TID 0000.0001) %MON extforcing_qnet_sd           =   8.0976721764764E+01
(PID.TID 0000.0001) %MON extforcing_qnet_del2         =   8.6037681855306E+00
(PID.TID 0000.0001) %MON extforcing_qsw_max           =   0.0000000000000E+00
(PID.TID 0000.0001) %MON extforcing_qsw_min           =   0.0000000000000E+00
(PID.TID 0000.0001) %MON extforcing_qsw_mean          =   0.0000000000000E+00
(PID.TID 0000.0001) %MON extforcing_qsw_sd            =   0.0000000000000E+00
(PID.TID 0000.0001) %MON extforcing_qsw_del2          =   0.0000000000000E+00
(PID.TID 0000.0001) %MON extforcing_empmr_max         =   0.0000000000000E+00
(PID.TID 0000.0001) %MON extforcing_empmr_min         =   0.0000000000000E+00
(PID.TID 0000.0001) %MON extforcing_empmr_mean        =   0.0000000000000E+00
(PID.TID 0000.0001) %MON extforcing_empmr_sd          =   0.0000000000000E+00
(PID.TID 0000.0001) %MON extforcing_empmr_del2        =   0.0000000000000E+00
(PID.TID 0000.0001) %MON extforcing_fu_max            =   3.0255478769541E-01
(PID.TID 0000.0001) %MON extforcing_fu_min            =  -2.1541005223989E-01
(PID.TID 0000.0001) %MON extforcing_fu_mean           =   1.7549291293432E-02
(PID.TID 0000.0001) %MON extforcing_fu_sd             =   9.2553159907454E-02
(PID.TID 0000.0001) %MON extforcing_fu_del2           =   7.9917381222575E-03
(PID.TID 0000.0001) %MON extforcing_fv_max            =   1.9841701760888E-01
(PID.TID 0000.0001) %MON extforcing_fv_min            =  -1.9492140710354E-01
(PID.TID 0000.0001) %MON extforcing_fv_mean           =  -7.1188335808876E-03
(PID.TID 0000.0001) %MON extforcing_fv_sd             =   4.4876511589825E-02
(PID.TID 0000.0001) %MON extforcing_fv_del2           =   5.0126075395841E-03
(PID.TID 0000.0001) %MON advcfl_uvel_max              =   2.0124344915406E-02
(PID.TID 0000.0001) %MON advcfl_vvel_max              =   1.5360376924987E-02
(PID.TID 0000.0001) %MON advcfl_wvel_max              =   1.0461633514346E-01
(PID.TID 0000.0001) %MON advcfl_W_hf_max              =   9.8502019782680E-02
(PID.TID 0000.0001) %MON pe_b_mean                    =   2.7397036993298E-04
(PID.TID 0000.0001) %MON ke_max                       =   1.5502762236902E-02
(PID.TID 0000.0001) %MON ke_mean                      =   1.7740139474036E-04
(PID.TID 0000.0001) %MON ke_vol                       =   1.3226782436723E+18
(PID.TID 0000.0001) %MON vort_r_min                   =  -4.5552112549480E-07
(PID.TID 0000.0001) %MON vort_r_max                   =   4.0531352710554E-07
(PID.TID 0000.0001) %MON vort_a_mean                  =  -2.5205769104234E-05
(PID.TID 0000.0001) %MON vort_a_sd                    =   7.3403637609718E-05
(PID.TID 0000.0001) %MON vort_p_mean                  =  -3.1758669193079E-05
(PID.TID 0000.0001) %MON vort_p_sd                    =   1.3126429668137E-04
(PID.TID 0000.0001) %MON surfExpan_theta_mean         =   1.1881471006087E-05
(PID.TID 0000.0001) %MON surfExpan_salt_mean          =   2.2116090198138E-08
(PID.TID 0000.0001) // =======================================================
(PID.TID 0000.0001) // End MONITOR dynamic field statistics
(PID.TID 0000.0001) // =======================================================
time,SST,SSS,fu,fv,Q,E-P,i0,i1,a,b =   3.8016E+06 -4.8218E-01  3.4431E+01 -1.5141E-02 -1.8956E-02  2.4132E+02  0.0000E+00     1     2  9.6667E-01  3.3333E-02
time,fu0,fu1,fu =   3.8016E+06 -3.5633E-02 -1.4435E-02 -1.5141E-02  9.666666666666667E-01  3.333333333333333E-02
 cg2d: Sum(rhs),rhsMax =   4.43041436870573E-12  7.90697486204084E+00
(PID.TID 0000.0001)                    cg2d_init_res =    4.04031695310956E-01
(PID.TID 0000.0001)                       cg2d_iters =    24
(PID.TID 0000.0001)                         cg2d_res =    7.10950984628443E-14
(PID.TID 0000.0001) // =======================================================
(PID.TID 0000.0001) // Begin MONITOR dynamic field statistics
(PID.TID 0000.0001) // =======================================================
(PID.TID 0000.0001) %MON time_tsnumber                =                    89
(PID.TID 0000.0001) %MON time_secondsf                =   3.8448000000000E+06
(PID.TID 0000.0001) %MON dynstat_eta_max              =   8.1488186943486E-01
(PID.TID 0000.0001) %MON dynstat_eta_min              =  -1.4734334263335E+00
(PID.TID 0000.0001) %MON dynstat_eta_mean             =  -2.3304699953725E-15
(PID.TID 0000.0001) %MON dynstat_eta_sd               =   4.6423522636104E-01
(PID.TID 0000.0001) %MON dynstat_eta_del2             =   2.5813638448269E-02
(PID.TID 0000.0001) %MON dynstat_uvel_max             =   1.5184977272523E-01
(PID.TID 0000.0001) %MON dynstat_uvel_min             =  -1.3157444162421E-01
(PID.TID 0000.0001) %MON dynstat_uvel_mean            =   1.5983542085064E-03
(PID.TID 0000.0001) %MON dynstat_uvel_sd              =   1.3609294205843E-02
(PID.TID 0000.0001) %MON dynstat_uvel_del2            =   3.3433929464391E-03
(PID.TID 0000.0001) %MON dynstat_vvel_max             =   1.5842121857864E-01
(PID.TID 0000.0001) %MON dynstat_vvel_min             =  -1.1364844215531E-01
(PID.TID 0000.0001) %MON dynstat_vvel_mean            =  -4.3516220743916E-04
(PID.TID 0000.0001) %MON dynstat_vvel_sd              =   1.4155185643129E-02
(PID.TID 0000.0001) %MON dynstat_vvel_del2            =   3.3777679106678E-03
(PID.TID 0000.0001) %MON dynstat_wvel_max             =   1.6965638338368E-04
(PID.TID 0000.0001) %MON dynstat_wvel_min             =  -1.8847460315832E-04
(PID.TID 0000.0001) %MON dynstat_wvel_mean            =   1.0934031138457E-22
(PID.TID 0000.0001) %MON dynstat_wvel_sd              =   1.8642954098636E-05
(PID.TID 0000.0001) %MON dynstat_wvel_del2            =   6.5560047763206E-06
(PID.TID 0000.0001) %MON dynstat_theta_max            =   2.9684746642322E+01
(PID.TID 0000.0001) %MON dynstat_theta_min            =  -2.0251574291290E+00
(PID.TID 0000.0001) %MON dynstat_theta_mean           =   3.5887300744034E+00
(PID.TID 0000.0001) %MON dynstat_theta_sd             =   4.3414874671322E+00
(PID.TID 0000.0001) %MON dynstat_theta_del2           =   1.3966182470932E-01
(PID.TID 0000.0001) %MON dynstat_salt_max             =   3.7388397308521E+01
(PID.TID 0000.0001) %MON dynstat_salt_min             =   2.9886601536234E+01
(PID.TID 0000.0001) %MON dynstat_salt_mean            =   3.4715964716898E+01
(PID.TID 0000.0001) %MON dynstat_salt_sd              =   2.9543956485020E-01
(PID.TID 0000.0001) %MON dynstat_salt_del2            =   2.5506986751223E-02
(PID.TID 0000.0001) %MON dynstat_sst_max              =   2.9684746642322E+01
(PID.TID 0000.0001) %MON dynstat_sst_min              =  -1.9312162506905E+00
(PID.TID 0000.0001) %MON dynstat_sst_mean             =   1.8645588787935E+01
(PID.TID 0000.0001) %MON dynstat_sst_sd               =   8.9339218458330E+00
(PID.TID 0000.0001) %MON dynstat_sst_del2             =   2.6933751762544E-01
(PID.TID 0000.0001) %MON dynstat_sss_max              =   3.7388395936375E+01
(PID.TID 0000.0001) %MON dynstat_sss_min              =   2.9886601536234E+01
(PID.TID 0000.0001) %MON dynstat_sss_mean             =   3.4839051032085E+01
(PID.TID 0000.0001) %MON dynstat_sss_sd               =   9.5692631133401E-01
(PID.TID 0000.0001) %MON dynstat_sss_del2             =   7.9129796572984E-02
(PID.TID 0000.0001) %MON extforcing_qnet_max          =   3.5980644938151E+02
(PID.TID 0000.0001) %MON extforcing_qnet_min          =  -1.7307348836263E+02
(PID.TID 0000.0001) %MON extforcing_qnet_mean         =  -1.4050160146347E+01
(PID.TID 0000.0001) %MON extforcing_qnet_sd           =   8.0515925311569E+01
(PID.TID 0000.0001) %MON extforcing_qnet_del2         =   8.5946786734119E+00
(PID.TID 0000.0001) %MON extforcing_qsw_max           =   0.0000000000000E+00
(PID.TID 0000.0001) %MON extforcing_qsw_min           =   0.0000000000000E+00
(PID.TID 0000.0001) %MON extforcing_qsw_mean          =   0.0000000000000E+00
(PID.TID 0000.0001) %MON extforcing_qsw_sd            =   0.0000000000000E+00
(PID.TID 0000.0001) %MON extforcing_qsw_del2          =   0.0000000000000E+00
(PID.TID 0000.0001) %MON extforcing_empmr_max         =   0.0000000000000E+00
(PID.TID 0000.0001) %MON extforcing_empmr_min         =   0.0000000000000E+00
(PID.TID 0000.0001) %MON extforcing_empmr_mean        =   0.0000000000000E+00
(PID.TID 0000.0001) %MON extforcing_empmr_sd          =   0.0000000000000E+00
(PID.TID 0000.0001) %MON extforcing_empmr_del2        =   0.0000000000000E+00
(PID.TID 0000.0001) %MON extforcing_fu_max            =   3.0324836671352E-01
(PID.TID 0000.0001) %MON extforcing_fu_min            =  -2.1682592133681E-01
(PID.TID 0000.0001) %MON extforcing_fu_mean           =   1.7576441401167E-02
(PID.TID 0000.0001) %MON extforcing_fu_sd             =   9.2702887616547E-02
(PID.TID 0000.0001) %MON extforcing_fu_del2           =   8.0326242391317E-03
(PID.TID 0000.0001) %MON extforcing_fv_max            =   1.9947300006946E-01
(PID.TID 0000.0001) %MON extforcing_fv_min            =  -1.9650735656420E-01
(PID.TID 0000.0001) %MON extforcing_fv_mean           =  -7.1514640342452E-03
(PID.TID 0000.0001) %MON extforcing_fv_sd             =   4.4931010890769E-02
(PID.TID 0000.0001) %MON extforcing_fv_del2           =   5.0505882820963E-03
(PID.TID 0000.0001) %MON advcfl_uvel_max              =   1.8962968502975E-02
(PID.TID 0000.0001) %MON advcfl_vvel_max              =   1.5389350999475E-02
(PID.TID 0000.0001) %MON advcfl_wvel_max              =   1.0660547091595E-01
(PID.TID 0000.0001) %MON advcfl_W_hf_max              =   9.9525842866445E-02
(PID.TID 0000.0001) %MON pe_b_mean                    =   2.7577658148638E-04
(PID.TID 0000.0001) %MON ke_max                       =   1.5150309541010E-02
(PID.TID 0000.0001) %MON ke_mean                      =   1.7534524259977E-04
(PID.TID 0000.0001) %MON ke_vol                       =   1.3226782436723E+18
(PID.TID 0000.0001) %MON vort_r_min                   =  -4.5981282764262E-07
(PID.TID 0000.0001) %MON vort_r_max                   =   3.9543605226305E-07
(PID.TID 0000.0001) %MON vort_a_mean                  =  -2.5205769100223E-05
(PID.TID 0000.0001) %MON vort_a_sd                    =   7.3403628498716E-05
(PID.TID 0000.0001) %MON vort_p_mean                  =  -3.1758669188025E-05
(PID.TID 0000.0001) %MON vort_p_sd                    =   1.3126423440605E-04
(PID.TID 0000.0001) %MON surfExpan_theta_mean         =   1.2502469740271E-05
(PID.TID 0000.0001) %MON surfExpan_salt_mean          =   5.1190776591086E-08
(PID.TID 0000.0001) // =======================================================
(PID.TID 0000.0001) // End MONITOR dynamic field statistics
(PID.TID 0000.0001) // =======================================================
time,SST,SSS,fu,fv,Q,E-P,i0,i1,a,b =   3.8448E+06 -5.0702E-01  3.4426E+01 -1.4788E-02 -1.8296E-02  2.4090E+02  0.0000E+00     1     2  9.8333E-01  1.6667E-02
time,fu0,fu1,fu =   3.8448E+06 -3.5633E-02 -1.4435E-02 -1.4788E-02  9.833333333333333E-01  1.666666666666672E-02
 cg2d: Sum(rhs),rhsMax =   4.29020707848338E-12  7.89125112328966E+00
(PID.TID 0000.0001)                    cg2d_init_res =    4.03230746969636E-01
(PID.TID 0000.0001)                       cg2d_iters =    24
(PID.TID 0000.0001)                         cg2d_res =    7.30317583476303E-14
(PID.TID 0000.0001) // =======================================================
(PID.TID 0000.0001) // Begin MONITOR dynamic field statistics
(PID.TID 0000.0001) // =======================================================
(PID.TID 0000.0001) %MON time_tsnumber                =                    90
(PID.TID 0000.0001) %MON time_secondsf                =   3.8880000000000E+06
(PID.TID 0000.0001) %MON dynstat_eta_max              =   8.5006099991477E-01
(PID.TID 0000.0001) %MON dynstat_eta_min              =  -1.4906272203389E+00
(PID.TID 0000.0001) %MON dynstat_eta_mean             =  -2.4192010863610E-15
(PID.TID 0000.0001) %MON dynstat_eta_sd               =   4.6588043550075E-01
(PID.TID 0000.0001) %MON dynstat_eta_del2             =   2.5846858137504E-02
(PID.TID 0000.0001) %MON dynstat_uvel_max             =   1.5073816753605E-01
(PID.TID 0000.0001) %MON dynstat_uvel_min             =  -1.3147539184523E-01
(PID.TID 0000.0001) %MON dynstat_uvel_mean            =   1.5566436848488E-03
(PID.TID 0000.0001) %MON dynstat_uvel_sd              =   1.3476237082898E-02
(PID.TID 0000.0001) %MON dynstat_uvel_del2            =   3.3373344839536E-03
(PID.TID 0000.0001) %MON dynstat_vvel_max             =   1.5850661282196E-01
(PID.TID 0000.0001) %MON dynstat_vvel_min             =  -1.1541072422345E-01
(PID.TID 0000.0001) %MON dynstat_vvel_mean            =  -3.7978818908968E-04
(PID.TID 0000.0001) %MON dynstat_vvel_sd              =   1.4156021520894E-02
(PID.TID 0000.0001) %MON dynstat_vvel_del2            =   3.3815858188092E-03
(PID.TID 0000.0001) %MON dynstat_wvel_max             =   1.6852044390921E-04
(PID.TID 0000.0001) %MON dynstat_wvel_min             =  -1.8823117860966E-04
(PID.TID 0000.0001) %MON dynstat_wvel_mean            =  -3.7903265064611E-22
(PID.TID 0000.0001) %MON dynstat_wvel_sd              =   1.8722898218266E-05
(PID.TID 0000.0001) %MON dynstat_wvel_del2            =   6.5444765924232E-06
(PID.TID 0000.0001) %MON dynstat_theta_max            =   2.9690545167333E+01
(PID.TID 0000.0001) %MON dynstat_theta_min            =  -2.0240028798941E+00
(PID.TID 0000.0001) %MON dynstat_theta_mean           =   3.5886237165880E+00
(PID.TID 0000.0001) %MON dynstat_theta_sd             =   4.3412931000369E+00
(PID.TID 0000.0001) %MON dynstat_theta_del2           =   1.3975655667343E-01
(PID.TID 0000.0001) %MON dynstat_salt_max             =   3.7388042065157E+01
(PID.TID 0000.0001) %MON dynstat_salt_min             =   2.9886910435619E+01
(PID.TID 0000.0001) %MON dynstat_salt_mean            =   3.4715964338155E+01
(PID.TID 0000.0001) %MON dynstat_salt_sd              =   2.9544252625842E-01
(PID.TID 0000.0001) %MON dynstat_salt_del2            =   2.5500231424336E-02
(PID.TID 0000.0001) %MON dynstat_sst_max              =   2.9690545167333E+01
(PID.TID 0000.0001) %MON dynstat_sst_min              =  -1.9317186178578E+00
(PID.TID 0000.0001) %MON dynstat_sst_mean             =   1.8646411319399E+01
(PID.TID 0000.0001) %MON dynstat_sst_sd               =   8.9348618782019E+00
(PID.TID 0000.0001) %MON dynstat_sst_del2             =   2.6934272489293E-01
(PID.TID 0000.0001) %MON dynstat_sss_max              =   3.7388040754831E+01
(PID.TID 0000.0001) %MON dynstat_sss_min              =   2.9886910435619E+01
(PID.TID 0000.0001) %MON dynstat_sss_mean             =   3.4838797993602E+01
(PID.TID 0000.0001) %MON dynstat_sss_sd               =   9.5670367973275E-01
(PID.TID 0000.0001) %MON dynstat_sss_del2             =   7.9069367975944E-02
(PID.TID 0000.0001) %MON extforcing_qnet_max          =   3.5912934468587E+02
(PID.TID 0000.0001) %MON extforcing_qnet_min          =  -1.7295372873942E+02
(PID.TID 0000.0001) %MON extforcing_qnet_mean         =  -1.4007705562645E+01
(PID.TID 0000.0001) %MON extforcing_qnet_sd           =   8.0057286969238E+01
(PID.TID 0000.0001) %MON extforcing_qnet_del2         =   8.5862302649855E+00
(PID.TID 0000.0001) %MON extforcing_qsw_max           =   0.0000000000000E+00
(PID.TID 0000.0001) %MON extforcing_qsw_min           =   0.0000000000000E+00
(PID.TID 0000.0001) %MON extforcing_qsw_mean          =   0.0000000000000E+00
(PID.TID 0000.0001) %MON extforcing_qsw_sd            =   0.0000000000000E+00
(PID.TID 0000.0001) %MON extforcing_qsw_del2          =   0.0000000000000E+00
(PID.TID 0000.0001) %MON extforcing_empmr_max         =   0.0000000000000E+00
(PID.TID 0000.0001) %MON extforcing_empmr_min         =   0.0000000000000E+00
(PID.TID 0000.0001) %MON extforcing_empmr_mean        =   0.0000000000000E+00
(PID.TID 0000.0001) %MON extforcing_empmr_sd          =   0.0000000000000E+00
(PID.TID 0000.0001) %MON extforcing_empmr_del2        =   0.0000000000000E+00
(PID.TID 0000.0001) %MON extforcing_fu_max            =   3.0394194573164E-01
(PID.TID 0000.0001) %MON extforcing_fu_min            =  -2.1824179043372E-01
(PID.TID 0000.0001) %MON extforcing_fu_mean           =   1.7603591508901E-02
(PID.TID 0000.0001) %MON extforcing_fu_sd             =   9.2856632602129E-02
(PID.TID 0000.0001) %MON extforcing_fu_del2           =   8.0749740469917E-03
(PID.TID 0000.0001) %MON extforcing_fv_max            =   2.0052898253004E-01
(PID.TID 0000.0001) %MON extforcing_fv_min            =  -1.9809330602487E-01
(PID.TID 0000.0001) %MON extforcing_fv_mean           =  -7.1840944876027E-03
(PID.TID 0000.0001) %MON extforcing_fv_sd             =   4.4989431366762E-02
(PID.TID 0000.0001) %MON extforcing_fv_del2           =   5.0891224360429E-03
(PID.TID 0000.0001) %MON advcfl_uvel_max              =   1.7972516100100E-02
(PID.TID 0000.0001) %MON advcfl_vvel_max              =   1.5397646365434E-02
(PID.TID 0000.0001) %MON advcfl_wvel_max              =   1.0550072309699E-01
(PID.TID 0000.0001) %MON advcfl_W_hf_max              =   9.8265055119957E-02
(PID.TID 0000.0001) %MON pe_b_mean                    =   2.7773470134100E-04
(PID.TID 0000.0001) %MON ke_max                       =   1.5057330668229E-02
(PID.TID 0000.0001) %MON ke_mean                      =   1.7363850417794E-04
(PID.TID 0000.0001) %MON ke_vol                       =   1.3226782436723E+18
(PID.TID 0000.0001) %MON vort_r_min                   =  -4.6360134991011E-07
(PID.TID 0000.0001) %MON vort_r_max                   =   3.8887516524176E-07
(PID.TID 0000.0001) %MON vort_a_mean                  =  -2.5205769094836E-05
(PID.TID 0000.0001) %MON vort_a_sd                    =   7.3403617758959E-05
(PID.TID 0000.0001) %MON vort_p_mean                  =  -3.1758669181237E-05
(PID.TID 0000.0001) %MON vort_p_sd                    =   1.3126417266295E-04
(PID.TID 0000.0001) %MON surfExpan_theta_mean         =   1.3042282122956E-05
(PID.TID 0000.0001) %MON surfExpan_salt_mean          =   8.7154335079755E-08
(PID.TID 0000.0001) // =======================================================
(PID.TID 0000.0001) // End MONITOR dynamic field statistics
(PID.TID 0000.0001) // =======================================================
S/R EXTERNAL_FIELDS_LOAD: Reading new data:    2    3        90  3.888000000000E+06
(PID.TID 0000.0001)  MDSREADFIELD: opening global file: trenberth_taux.bin
(PID.TID 0000.0001)  MDSREADFIELD: opening global file: trenberth_taux.bin
(PID.TID 0000.0001)  MDSREADFIELD: opening global file: trenberth_tauy.bin
(PID.TID 0000.0001)  MDSREADFIELD: opening global file: trenberth_tauy.bin
(PID.TID 0000.0001)  MDSREADFIELD: opening global file: ncep_qnet.bin
(PID.TID 0000.0001)  MDSREADFIELD: opening global file: ncep_qnet.bin
(PID.TID 0000.0001)  MDSREADFIELD: opening global file: lev_sst.bin
(PID.TID 0000.0001)  MDSREADFIELD: opening global file: lev_sst.bin
(PID.TID 0000.0001)  MDSREADFIELD: opening global file: lev_sss.bin
(PID.TID 0000.0001)  MDSREADFIELD: opening global file: lev_sss.bin
time,SST,SSS,fu,fv,Q,E-P,i0,i1,a,b =   3.8880E+06 -5.3186E-01  3.4421E+01 -1.4435E-02 -1.7636E-02  2.4048E+02  0.0000E+00     2     3  0.0000E+00  1.0000E+00
time,fu0,fu1,fu =   3.8880E+06 -1.4435E-02 -2.7199E-02 -1.4435E-02  0.000000000000000E+00  1.000000000000000E+00
 cg2d: Sum(rhs),rhsMax =   4.60428917214983E-12  7.88464116714749E+00
(PID.TID 0000.0001)                    cg2d_init_res =    3.98922732614985E-01
(PID.TID 0000.0001)                       cg2d_iters =    24
(PID.TID 0000.0001)                         cg2d_res =    6.76695966515134E-14
(PID.TID 0000.0001) // =======================================================
(PID.TID 0000.0001) // Begin MONITOR dynamic field statistics
(PID.TID 0000.0001) // =======================================================
(PID.TID 0000.0001) %MON time_tsnumber                =                    91
(PID.TID 0000.0001) %MON time_secondsf                =   3.9312000000000E+06
(PID.TID 0000.0001) %MON dynstat_eta_max              =   9.1420866687005E-01
(PID.TID 0000.0001) %MON dynstat_eta_min              =  -1.5052233783793E+00
(PID.TID 0000.0001) %MON dynstat_eta_mean             =  -2.5318607755253E-15
(PID.TID 0000.0001) %MON dynstat_eta_sd               =   4.6763887659498E-01
(PID.TID 0000.0001) %MON dynstat_eta_del2             =   2.5897191853086E-02
(PID.TID 0000.0001) %MON dynstat_uvel_max             =   1.4877846919823E-01
(PID.TID 0000.0001) %MON dynstat_uvel_min             =  -1.3136194170992E-01
(PID.TID 0000.0001) %MON dynstat_uvel_mean            =   1.5102463351297E-03
(PID.TID 0000.0001) %MON dynstat_uvel_sd              =   1.3368984757099E-02
(PID.TID 0000.0001) %MON dynstat_uvel_del2            =   3.3312635236085E-03
(PID.TID 0000.0001) %MON dynstat_vvel_max             =   1.5838023589562E-01
(PID.TID 0000.0001) %MON dynstat_vvel_min             =  -1.1708762585881E-01
(PID.TID 0000.0001) %MON dynstat_vvel_mean            =  -3.2204681917110E-04
(PID.TID 0000.0001) %MON dynstat_vvel_sd              =   1.4159403283973E-02
(PID.TID 0000.0001) %MON dynstat_vvel_del2            =   3.3858359499990E-03
(PID.TID 0000.0001) %MON dynstat_wvel_max             =   1.6717421024599E-04
(PID.TID 0000.0001) %MON dynstat_wvel_min             =  -1.8643835898110E-04
(PID.TID 0000.0001) %MON dynstat_wvel_mean            =   2.7464671460433E-22
(PID.TID 0000.0001) %MON dynstat_wvel_sd              =   1.8797775406582E-05
(PID.TID 0000.0001) %MON dynstat_wvel_del2            =   6.5207921683832E-06
(PID.TID 0000.0001) %MON dynstat_theta_max            =   2.9783326018906E+01
(PID.TID 0000.0001) %MON dynstat_theta_min            =  -2.0227862230136E+00
(PID.TID 0000.0001) %MON dynstat_theta_mean           =   3.5885119163629E+00
(PID.TID 0000.0001) %MON dynstat_theta_sd             =   4.3410736744046E+00
(PID.TID 0000.0001) %MON dynstat_theta_del2           =   1.3981623475636E-01
(PID.TID 0000.0001) %MON dynstat_salt_max             =   3.7387642825771E+01
(PID.TID 0000.0001) %MON dynstat_salt_min             =   2.9887227104338E+01
(PID.TID 0000.0001) %MON dynstat_salt_mean            =   3.4715963516959E+01
(PID.TID 0000.0001) %MON dynstat_salt_sd              =   2.9544635926641E-01
(PID.TID 0000.0001) %MON dynstat_salt_del2            =   2.5487132733611E-02
(PID.TID 0000.0001) %MON dynstat_sst_max              =   2.9783326018906E+01
(PID.TID 0000.0001) %MON dynstat_sst_min              =  -1.9321097261369E+00
(PID.TID 0000.0001) %MON dynstat_sst_mean             =   1.8647573203356E+01
(PID.TID 0000.0001) %MON dynstat_sst_sd               =   8.9353356622622E+00
(PID.TID 0000.0001) %MON dynstat_sst_del2             =   2.6907571090295E-01
(PID.TID 0000.0001) %MON dynstat_sss_max              =   3.7387641574816E+01
(PID.TID 0000.0001) %MON dynstat_sss_min              =   2.9887227104338E+01
(PID.TID 0000.0001) %MON dynstat_sss_mean             =   3.4838589271765E+01
(PID.TID 0000.0001) %MON dynstat_sss_sd               =   9.5651869719252E-01
(PID.TID 0000.0001) %MON dynstat_sss_del2             =   7.8975614255143E-02
(PID.TID 0000.0001) %MON extforcing_qnet_max          =   3.5845223999023E+02
(PID.TID 0000.0001) %MON extforcing_qnet_min          =  -1.7283396911621E+02
(PID.TID 0000.0001) %MON extforcing_qnet_mean         =  -1.3965250978943E+01
(PID.TID 0000.0001) %MON extforcing_qnet_sd           =   7.9600844041117E+01
(PID.TID 0000.0001) %MON extforcing_qnet_del2         =   8.5781683310255E+00
(PID.TID 0000.0001) %MON extforcing_qsw_max           =   0.0000000000000E+00
(PID.TID 0000.0001) %MON extforcing_qsw_min           =   0.0000000000000E+00
(PID.TID 0000.0001) %MON extforcing_qsw_mean          =   0.0000000000000E+00
(PID.TID 0000.0001) %MON extforcing_qsw_sd            =   0.0000000000000E+00
(PID.TID 0000.0001) %MON extforcing_qsw_del2          =   0.0000000000000E+00
(PID.TID 0000.0001) %MON extforcing_empmr_max         =   0.0000000000000E+00
(PID.TID 0000.0001) %MON extforcing_empmr_min         =   0.0000000000000E+00
(PID.TID 0000.0001) %MON extforcing_empmr_mean        =   0.0000000000000E+00
(PID.TID 0000.0001) %MON extforcing_empmr_sd          =   0.0000000000000E+00
(PID.TID 0000.0001) %MON extforcing_empmr_del2        =   0.0000000000000E+00
(PID.TID 0000.0001) %MON extforcing_fu_max            =   3.0463552474976E-01
(PID.TID 0000.0001) %MON extforcing_fu_min            =  -2.1965765953064E-01
(PID.TID 0000.0001) %MON extforcing_fu_mean           =   1.7630741616636E-02
(PID.TID 0000.0001) %MON extforcing_fu_sd             =   9.3014374943535E-02
(PID.TID 0000.0001) %MON extforcing_fu_del2           =   8.1180128458293E-03
(PID.TID 0000.0001) %MON extforcing_fv_max            =   2.0158496499062E-01
(PID.TID 0000.0001) %MON extforcing_fv_min            =  -1.9967925548553E-01
(PID.TID 0000.0001) %MON extforcing_fv_mean           =  -7.2167249409603E-03
(PID.TID 0000.0001) %MON extforcing_fv_sd             =   4.5051757763558E-02
(PID.TID 0000.0001) %MON extforcing_fv_del2           =   5.1284108331366E-03
(PID.TID 0000.0001) %MON advcfl_uvel_max              =   1.7966988166687E-02
(PID.TID 0000.0001) %MON advcfl_vvel_max              =   1.5385369860461E-02
(PID.TID 0000.0001) %MON advcfl_wvel_max              =   1.0141222688097E-01
(PID.TID 0000.0001) %MON advcfl_W_hf_max              =   9.4786635752096E-02
(PID.TID 0000.0001) %MON pe_b_mean                    =   2.7983524799337E-04
(PID.TID 0000.0001) %MON ke_max                       =   1.4955287643906E-02
(PID.TID 0000.0001) %MON ke_mean                      =   1.7229058303445E-04
(PID.TID 0000.0001) %MON ke_vol                       =   1.3226782436723E+18
(PID.TID 0000.0001) %MON vort_r_min                   =  -4.6682899268754E-07
(PID.TID 0000.0001) %MON vort_r_max                   =   3.8223251602100E-07
(PID.TID 0000.0001) %MON vort_a_mean                  =  -2.5205769088439E-05
(PID.TID 0000.0001) %MON vort_a_sd                    =   7.3403605666812E-05
(PID.TID 0000.0001) %MON vort_p_mean                  =  -3.1758669173176E-05
(PID.TID 0000.0001) %MON vort_p_sd                    =   1.3126411288332E-04
(PID.TID 0000.0001) %MON surfExpan_theta_mean         =   1.3494151140420E-05
(PID.TID 0000.0001) %MON surfExpan_salt_mean          =   1.2789633259284E-07
(PID.TID 0000.0001) // =======================================================
(PID.TID 0000.0001) // End MONITOR dynamic field statistics
(PID.TID 0000.0001) // =======================================================
time,SST,SSS,fu,fv,Q,E-P,i0,i1,a,b =   3.9312E+06 -5.2606E-01  3.4424E+01 -1.4647E-02 -1.7351E-02  2.4006E+02  0.0000E+00     2     3  1.6667E-02  9.8333E-01
time,fu0,fu1,fu =   3.9312E+06 -1.4435E-02 -2.7199E-02 -1.4647E-02  1.666666666666667E-02  9.833333333333333E-01
 cg2d: Sum(rhs),rhsMax =   4.22110957298827E-12  8.18557512400995E+00
(PID.TID 0000.0001)                    cg2d_init_res =    3.77074342166572E-01
(PID.TID 0000.0001)                       cg2d_iters =    24
(PID.TID 0000.0001)                         cg2d_res =    7.25584271682874E-14
(PID.TID 0000.0001) // =======================================================
(PID.TID 0000.0001) // Begin MONITOR dynamic field statistics
(PID.TID 0000.0001) // =======================================================
(PID.TID 0000.0001) %MON time_tsnumber                =                    92
(PID.TID 0000.0001) %MON time_secondsf                =   3.9744000000000E+06
(PID.TID 0000.0001) %MON dynstat_eta_max              =   9.7471010165581E-01
(PID.TID 0000.0001) %MON dynstat_eta_min              =  -1.5169397811131E+00
(PID.TID 0000.0001) %MON dynstat_eta_mean             =  -2.0383387446091E-15
(PID.TID 0000.0001) %MON dynstat_eta_sd               =   4.6949675128442E-01
(PID.TID 0000.0001) %MON dynstat_eta_del2             =   2.5980467267862E-02
(PID.TID 0000.0001) %MON dynstat_uvel_max             =   1.4593171512300E-01
(PID.TID 0000.0001) %MON dynstat_uvel_min             =  -1.3122135595093E-01
(PID.TID 0000.0001) %MON dynstat_uvel_mean            =   1.4607388214664E-03
(PID.TID 0000.0001) %MON dynstat_uvel_sd              =   1.3290275619030E-02
(PID.TID 0000.0001) %MON dynstat_uvel_del2            =   3.3248180234479E-03
(PID.TID 0000.0001) %MON dynstat_vvel_max             =   1.5803890671989E-01
(PID.TID 0000.0001) %MON dynstat_vvel_min             =  -1.1864729036977E-01
(PID.TID 0000.0001) %MON dynstat_vvel_mean            =  -2.6124126937777E-04
(PID.TID 0000.0001) %MON dynstat_vvel_sd              =   1.4163595773318E-02
(PID.TID 0000.0001) %MON dynstat_vvel_del2            =   3.3894032681189E-03
(PID.TID 0000.0001) %MON dynstat_wvel_max             =   1.6558920319156E-04
(PID.TID 0000.0001) %MON dynstat_wvel_min             =  -1.8320465523367E-04
(PID.TID 0000.0001) %MON dynstat_wvel_mean            =  -1.3601595269782E-23
(PID.TID 0000.0001) %MON dynstat_wvel_sd              =   1.8860630018129E-05
(PID.TID 0000.0001) %MON dynstat_wvel_del2            =   6.4822072745678E-06
(PID.TID 0000.0001) %MON dynstat_theta_max            =   2.9887301677115E+01
(PID.TID 0000.0001) %MON dynstat_theta_min            =  -2.0215198162836E+00
(PID.TID 0000.0001) %MON dynstat_theta_mean           =   3.5883951555842E+00
(PID.TID 0000.0001) %MON dynstat_theta_sd             =   4.3408317783750E+00
(PID.TID 0000.0001) %MON dynstat_theta_del2           =   1.3985544577336E-01
(PID.TID 0000.0001) %MON dynstat_salt_max             =   3.7387222346216E+01
(PID.TID 0000.0001) %MON dynstat_salt_min             =   2.9887548172358E+01
(PID.TID 0000.0001) %MON dynstat_salt_mean            =   3.4715962209064E+01
(PID.TID 0000.0001) %MON dynstat_salt_sd              =   2.9545111532493E-01
(PID.TID 0000.0001) %MON dynstat_salt_del2            =   2.5468742082306E-02
(PID.TID 0000.0001) %MON dynstat_sst_max              =   2.9887301677115E+01
(PID.TID 0000.0001) %MON dynstat_sst_min              =  -1.9322021636804E+00
(PID.TID 0000.0001) %MON dynstat_sst_mean             =   1.8648824051011E+01
(PID.TID 0000.0001) %MON dynstat_sst_sd               =   8.9359881976465E+00
(PID.TID 0000.0001) %MON dynstat_sst_del2             =   2.6888123289012E-01
(PID.TID 0000.0001) %MON dynstat_sss_max              =   3.7387221168746E+01
(PID.TID 0000.0001) %MON dynstat_sss_min              =   2.9887548172358E+01
(PID.TID 0000.0001) %MON dynstat_sss_mean             =   3.4838422332247E+01
(PID.TID 0000.0001) %MON dynstat_sss_sd               =   9.5644083493129E-01
(PID.TID 0000.0001) %MON dynstat_sss_del2             =   7.8858912972801E-02
(PID.TID 0000.0001) %MON extforcing_qnet_max          =   3.5705316416423E+02
(PID.TID 0000.0001) %MON extforcing_qnet_min          =  -1.7268432947795E+02
(PID.TID 0000.0001) %MON extforcing_qnet_mean         =  -1.3853581229130E+01
(PID.TID 0000.0001) %MON extforcing_qnet_sd           =   7.8885854981310E+01
(PID.TID 0000.0001) %MON extforcing_qnet_del2         =   8.5457355704658E+00
(PID.TID 0000.0001) %MON extforcing_qsw_max           =   0.0000000000000E+00
(PID.TID 0000.0001) %MON extforcing_qsw_min           =   0.0000000000000E+00
(PID.TID 0000.0001) %MON extforcing_qsw_mean          =   0.0000000000000E+00
(PID.TID 0000.0001) %MON extforcing_qsw_sd            =   0.0000000000000E+00
(PID.TID 0000.0001) %MON extforcing_qsw_del2          =   0.0000000000000E+00
(PID.TID 0000.0001) %MON extforcing_empmr_max         =   0.0000000000000E+00
(PID.TID 0000.0001) %MON extforcing_empmr_min         =   0.0000000000000E+00
(PID.TID 0000.0001) %MON extforcing_empmr_mean        =   0.0000000000000E+00
(PID.TID 0000.0001) %MON extforcing_empmr_sd          =   0.0000000000000E+00
(PID.TID 0000.0001) %MON extforcing_empmr_del2        =   0.0000000000000E+00
(PID.TID 0000.0001) %MON extforcing_fu_max            =   3.0529770106077E-01
(PID.TID 0000.0001) %MON extforcing_fu_min            =  -2.1852717300256E-01
(PID.TID 0000.0001) %MON extforcing_fu_mean           =   1.7677841411365E-02
(PID.TID 0000.0001) %MON extforcing_fu_sd             =   9.3013885977022E-02
(PID.TID 0000.0001) %MON extforcing_fu_del2           =   8.0972499177674E-03
(PID.TID 0000.0001) %MON extforcing_fv_max            =   1.9874161885430E-01
(PID.TID 0000.0001) %MON extforcing_fv_min            =  -1.9893623739481E-01
(PID.TID 0000.0001) %MON extforcing_fv_mean           =  -7.2219391159451E-03
(PID.TID 0000.0001) %MON extforcing_fv_sd             =   4.4889375779581E-02
(PID.TID 0000.0001) %MON extforcing_fv_del2           =   5.0936456641149E-03
(PID.TID 0000.0001) %MON advcfl_uvel_max              =   1.9315371352428E-02
(PID.TID 0000.0001) %MON advcfl_vvel_max              =   1.5352212468170E-02
(PID.TID 0000.0001) %MON advcfl_wvel_max              =   9.4626326465895E-02
(PID.TID 0000.0001) %MON advcfl_W_hf_max              =   8.9199423633244E-02
(PID.TID 0000.0001) %MON pe_b_mean                    =   2.8206317043188E-04
(PID.TID 0000.0001) %MON ke_max                       =   1.4845784331122E-02
(PID.TID 0000.0001) %MON ke_mean                      =   1.7130784427842E-04
(PID.TID 0000.0001) %MON ke_vol                       =   1.3226782436723E+18
(PID.TID 0000.0001) %MON vort_r_min                   =  -4.6945847393789E-07
(PID.TID 0000.0001) %MON vort_r_max                   =   3.7842770832155E-07
(PID.TID 0000.0001) %MON vort_a_mean                  =  -2.5205769080873E-05
(PID.TID 0000.0001) %MON vort_a_sd                    =   7.3403592526203E-05
(PID.TID 0000.0001) %MON vort_p_mean                  =  -3.1758669163643E-05
(PID.TID 0000.0001) %MON vort_p_sd                    =   1.3126405644080E-04
(PID.TID 0000.0001) %MON surfExpan_theta_mean         =   1.3853264024324E-05
(PID.TID 0000.0001) %MON surfExpan_salt_mean          =   1.7086498702933E-07
(PID.TID 0000.0001) // =======================================================
(PID.TID 0000.0001) // End MONITOR dynamic field statistics
(PID.TID 0000.0001) // =======================================================
time,SST,SSS,fu,fv,Q,E-P,i0,i1,a,b =   3.9744E+06 -5.2026E-01  3.4426E+01 -1.4860E-02 -1.7067E-02  2.3964E+02  0.0000E+00     2     3  3.3333E-02  9.6667E-01
time,fu0,fu1,fu =   3.9744E+06 -1.4435E-02 -2.7199E-02 -1.4860E-02  3.333333333333333E-02  9.666666666666667E-01
 cg2d: Sum(rhs),rhsMax =   4.42978986825437E-12  8.65937290165749E+00
(PID.TID 0000.0001)                    cg2d_init_res =    3.47482061890296E-01
(PID.TID 0000.0001)                       cg2d_iters =    24
(PID.TID 0000.0001)                         cg2d_res =    7.00469310416204E-14
(PID.TID 0000.0001) // =======================================================
(PID.TID 0000.0001) // Begin MONITOR dynamic field statistics
(PID.TID 0000.0001) // =======================================================
(PID.TID 0000.0001) %MON time_tsnumber                =                    93
(PID.TID 0000.0001) %MON time_secondsf                =   4.0176000000000E+06
(PID.TID 0000.0001) %MON dynstat_eta_max              =   1.0302757321434E+00
(PID.TID 0000.0001) %MON dynstat_eta_min              =  -1.5255944329110E+00
(PID.TID 0000.0001) %MON dynstat_eta_mean             =  -2.2198904386339E-15
(PID.TID 0000.0001) %MON dynstat_eta_sd               =   4.7143667142182E-01
(PID.TID 0000.0001) %MON dynstat_eta_del2             =   2.6098668083846E-02
(PID.TID 0000.0001) %MON dynstat_uvel_max             =   1.4226817974559E-01
(PID.TID 0000.0001) %MON dynstat_uvel_min             =  -1.3106651307503E-01
(PID.TID 0000.0001) %MON dynstat_uvel_mean            =   1.4096788673792E-03
(PID.TID 0000.0001) %MON dynstat_uvel_sd              =   1.3242560063938E-02
(PID.TID 0000.0001) %MON dynstat_uvel_del2            =   3.3188449090021E-03
(PID.TID 0000.0001) %MON dynstat_vvel_max             =   1.5748696446602E-01
(PID.TID 0000.0001) %MON dynstat_vvel_min             =  -1.2084231263383E-01
(PID.TID 0000.0001) %MON dynstat_vvel_mean            =  -1.9682132434009E-04
(PID.TID 0000.0001) %MON dynstat_vvel_sd              =   1.4167075716522E-02
(PID.TID 0000.0001) %MON dynstat_vvel_del2            =   3.3926190579244E-03
(PID.TID 0000.0001) %MON dynstat_wvel_max             =   1.6373851812388E-04
(PID.TID 0000.0001) %MON dynstat_wvel_min             =  -1.7866674379258E-04
(PID.TID 0000.0001) %MON dynstat_wvel_mean            =   3.2111692036584E-24
(PID.TID 0000.0001) %MON dynstat_wvel_sd              =   1.8906112308283E-05
(PID.TID 0000.0001) %MON dynstat_wvel_del2            =   6.4374794467708E-06
(PID.TID 0000.0001) %MON dynstat_theta_max            =   2.9983648700289E+01
(PID.TID 0000.0001) %MON dynstat_theta_min            =  -2.0202166236877E+00
(PID.TID 0000.0001) %MON dynstat_theta_mean           =   3.5882747028065E+00
(PID.TID 0000.0001) %MON dynstat_theta_sd             =   4.3405708836234E+00
(PID.TID 0000.0001) %MON dynstat_theta_del2           =   1.3988515970569E-01
(PID.TID 0000.0001) %MON dynstat_salt_max             =   3.7386779872449E+01
(PID.TID 0000.0001) %MON dynstat_salt_min             =   2.9887869671971E+01
(PID.TID 0000.0001) %MON dynstat_salt_mean            =   3.4715960405826E+01
(PID.TID 0000.0001) %MON dynstat_salt_sd              =   2.9545588641446E-01
(PID.TID 0000.0001) %MON dynstat_salt_del2            =   2.5451790789773E-02
(PID.TID 0000.0001) %MON dynstat_sst_max              =   2.9983648700289E+01
(PID.TID 0000.0001) %MON dynstat_sst_min              =  -1.9321896595510E+00
(PID.TID 0000.0001) %MON dynstat_sst_mean             =   1.8650232091928E+01
(PID.TID 0000.0001) %MON dynstat_sst_sd               =   8.9363652678275E+00
(PID.TID 0000.0001) %MON dynstat_sst_del2             =   2.6856741126641E-01
(PID.TID 0000.0001) %MON dynstat_sss_max              =   3.7386778757373E+01
(PID.TID 0000.0001) %MON dynstat_sss_min              =   2.9887869671971E+01
(PID.TID 0000.0001) %MON dynstat_sss_mean             =   3.4838257223510E+01
(PID.TID 0000.0001) %MON dynstat_sss_sd               =   9.5633401825550E-01
(PID.TID 0000.0001) %MON dynstat_sss_del2             =   7.8782281777679E-02
(PID.TID 0000.0001) %MON extforcing_qnet_max          =   3.5565408833822E+02
(PID.TID 0000.0001) %MON extforcing_qnet_min          =  -1.7253468983968E+02
(PID.TID 0000.0001) %MON extforcing_qnet_mean         =  -1.3741911479317E+01
(PID.TID 0000.0001) %MON extforcing_qnet_sd           =   7.8173808417116E+01
(PID.TID 0000.0001) %MON extforcing_qnet_del2         =   8.5138944622798E+00
(PID.TID 0000.0001) %MON extforcing_qsw_max           =   0.0000000000000E+00
(PID.TID 0000.0001) %MON extforcing_qsw_min           =   0.0000000000000E+00
(PID.TID 0000.0001) %MON extforcing_qsw_mean          =   0.0000000000000E+00
(PID.TID 0000.0001) %MON extforcing_qsw_sd            =   0.0000000000000E+00
(PID.TID 0000.0001) %MON extforcing_qsw_del2          =   0.0000000000000E+00
(PID.TID 0000.0001) %MON extforcing_empmr_max         =   0.0000000000000E+00
(PID.TID 0000.0001) %MON extforcing_empmr_min         =   0.0000000000000E+00
(PID.TID 0000.0001) %MON extforcing_empmr_mean        =   0.0000000000000E+00
(PID.TID 0000.0001) %MON extforcing_empmr_sd          =   0.0000000000000E+00
(PID.TID 0000.0001) %MON extforcing_empmr_del2        =   0.0000000000000E+00
(PID.TID 0000.0001) %MON extforcing_fu_max            =   3.0595987737179E-01
(PID.TID 0000.0001) %MON extforcing_fu_min            =  -2.2111698041360E-01
(PID.TID 0000.0001) %MON extforcing_fu_mean           =   1.7724941206094E-02
(PID.TID 0000.0001) %MON extforcing_fu_sd             =   9.3018818826085E-02
(PID.TID 0000.0001) %MON extforcing_fu_del2           =   8.0768474068847E-03
(PID.TID 0000.0001) %MON extforcing_fv_max            =   1.9589827271799E-01
(PID.TID 0000.0001) %MON extforcing_fv_min            =  -1.9819321930408E-01
(PID.TID 0000.0001) %MON extforcing_fv_mean           =  -7.2271532909298E-03
(PID.TID 0000.0001) %MON extforcing_fv_sd             =   4.4730626914368E-02
(PID.TID 0000.0001) %MON extforcing_fv_del2           =   5.0596793742234E-03
(PID.TID 0000.0001) %MON advcfl_uvel_max              =   2.0642901288295E-02
(PID.TID 0000.0001) %MON advcfl_vvel_max              =   1.5298595704251E-02
(PID.TID 0000.0001) %MON advcfl_wvel_max              =   8.7974215390902E-02
(PID.TID 0000.0001) %MON advcfl_W_hf_max              =   8.1649168000568E-02
(PID.TID 0000.0001) %MON pe_b_mean                    =   2.8439890746607E-04
(PID.TID 0000.0001) %MON ke_max                       =   1.4728497226697E-02
(PID.TID 0000.0001) %MON ke_mean                      =   1.7069709556886E-04
(PID.TID 0000.0001) %MON ke_vol                       =   1.3226782436723E+18
(PID.TID 0000.0001) %MON vort_r_min                   =  -4.7147232117386E-07
(PID.TID 0000.0001) %MON vort_r_max                   =   3.8020509372417E-07
(PID.TID 0000.0001) %MON vort_a_mean                  =  -2.5205769072826E-05
(PID.TID 0000.0001) %MON vort_a_sd                    =   7.3403578644780E-05
(PID.TID 0000.0001) %MON vort_p_mean                  =  -3.1758669153505E-05
(PID.TID 0000.0001) %MON vort_p_sd                    =   1.3126400467876E-04
(PID.TID 0000.0001) %MON surfExpan_theta_mean         =   1.4119491868077E-05
(PID.TID 0000.0001) %MON surfExpan_salt_mean          =   2.1457321956943E-07
(PID.TID 0000.0001) // =======================================================
(PID.TID 0000.0001) // End MONITOR dynamic field statistics
(PID.TID 0000.0001) // =======================================================
time,SST,SSS,fu,fv,Q,E-P,i0,i1,a,b =   4.0176E+06 -5.1446E-01  3.4429E+01 -1.5073E-02 -1.6783E-02  2.3923E+02  0.0000E+00     2     3  5.0000E-02  9.5000E-01
time,fu0,fu1,fu =   4.0176E+06 -1.4435E-02 -2.7199E-02 -1.5073E-02  5.000000000000000E-02  9.500000000000000E-01
 cg2d: Sum(rhs),rhsMax =   3.74703740257942E-12  9.08149159275093E+00
(PID.TID 0000.0001)                    cg2d_init_res =    3.21218294043435E-01
(PID.TID 0000.0001)                       cg2d_iters =    24
(PID.TID 0000.0001)                         cg2d_res =    5.26879427307785E-14
(PID.TID 0000.0001) // =======================================================
(PID.TID 0000.0001) // Begin MONITOR dynamic field statistics
(PID.TID 0000.0001) // =======================================================
(PID.TID 0000.0001) %MON time_tsnumber                =                    94
(PID.TID 0000.0001) %MON time_secondsf                =   4.0608000000000E+06
(PID.TID 0000.0001) %MON dynstat_eta_max              =   1.0798004652359E+00
(PID.TID 0000.0001) %MON dynstat_eta_min              =  -1.5311168478692E+00
(PID.TID 0000.0001) %MON dynstat_eta_mean             =  -2.2667924721370E-15
(PID.TID 0000.0001) %MON dynstat_eta_sd               =   4.7343893920415E-01
(PID.TID 0000.0001) %MON dynstat_eta_del2             =   2.6226015152365E-02
(PID.TID 0000.0001) %MON dynstat_uvel_max             =   1.3783868359661E-01
(PID.TID 0000.0001) %MON dynstat_uvel_min             =  -1.3090161788648E-01
(PID.TID 0000.0001) %MON dynstat_uvel_mean            =   1.3585824961307E-03
(PID.TID 0000.0001) %MON dynstat_uvel_sd              =   1.3227837170422E-02
(PID.TID 0000.0001) %MON dynstat_uvel_del2            =   3.3139392856818E-03
(PID.TID 0000.0001) %MON dynstat_vvel_max             =   1.5672674511547E-01
(PID.TID 0000.0001) %MON dynstat_vvel_min             =  -1.2480149222562E-01
(PID.TID 0000.0001) %MON dynstat_vvel_mean            =  -1.2840557718494E-04
(PID.TID 0000.0001) %MON dynstat_vvel_sd              =   1.4168315215461E-02
(PID.TID 0000.0001) %MON dynstat_vvel_del2            =   3.3932112907680E-03
(PID.TID 0000.0001) %MON dynstat_wvel_max             =   1.6160367527333E-04
(PID.TID 0000.0001) %MON dynstat_wvel_min             =  -1.7298798685372E-04
(PID.TID 0000.0001) %MON dynstat_wvel_mean            =  -9.2837195370052E-23
(PID.TID 0000.0001) %MON dynstat_wvel_sd              =   1.8930637847029E-05
(PID.TID 0000.0001) %MON dynstat_wvel_del2            =   6.3884570648385E-06
(PID.TID 0000.0001) %MON dynstat_theta_max            =   3.0070482373545E+01
(PID.TID 0000.0001) %MON dynstat_theta_min            =  -2.0188896764097E+00
(PID.TID 0000.0001) %MON dynstat_theta_mean           =   3.5881515825649E+00
(PID.TID 0000.0001) %MON dynstat_theta_sd             =   4.3402954055314E+00
(PID.TID 0000.0001) %MON dynstat_theta_del2           =   1.3989473278794E-01
(PID.TID 0000.0001) %MON dynstat_salt_max             =   3.7386321878803E+01
(PID.TID 0000.0001) %MON dynstat_salt_min             =   2.9888182834359E+01
(PID.TID 0000.0001) %MON dynstat_salt_mean            =   3.4715958109768E+01
(PID.TID 0000.0001) %MON dynstat_salt_sd              =   2.9546025312452E-01
(PID.TID 0000.0001) %MON dynstat_salt_del2            =   2.5431871501700E-02
(PID.TID 0000.0001) %MON dynstat_sst_max              =   3.0070482373545E+01
(PID.TID 0000.0001) %MON dynstat_sst_min              =  -1.9320025992707E+00
(PID.TID 0000.0001) %MON dynstat_sst_mean             =   1.8651758421254E+01
(PID.TID 0000.0001) %MON dynstat_sst_sd               =   8.9367836389844E+00
(PID.TID 0000.0001) %MON dynstat_sst_del2             =   2.6835642420493E-01
(PID.TID 0000.0001) %MON dynstat_sss_max              =   3.7386320820914E+01
(PID.TID 0000.0001) %MON dynstat_sss_min              =   2.9888182834359E+01
(PID.TID 0000.0001) %MON dynstat_sss_mean             =   3.4838106200133E+01
(PID.TID 0000.0001) %MON dynstat_sss_sd               =   9.5625372550493E-01
(PID.TID 0000.0001) %MON dynstat_sss_del2             =   7.8696669304832E-02
(PID.TID 0000.0001) %MON extforcing_qnet_max          =   3.5425501251221E+02
(PID.TID 0000.0001) %MON extforcing_qnet_min          =  -1.7238505020142E+02
(PID.TID 0000.0001) %MON extforcing_qnet_mean         =  -1.3630241729503E+01
(PID.TID 0000.0001) %MON extforcing_qnet_sd           =   7.7464785489727E+01
(PID.TID 0000.0001) %MON extforcing_qnet_del2         =   8.4825968199561E+00
(PID.TID 0000.0001) %MON extforcing_qsw_max           =   0.0000000000000E+00
(PID.TID 0000.0001) %MON extforcing_qsw_min           =   0.0000000000000E+00
(PID.TID 0000.0001) %MON extforcing_qsw_mean          =   0.0000000000000E+00
(PID.TID 0000.0001) %MON extforcing_qsw_sd            =   0.0000000000000E+00
(PID.TID 0000.0001) %MON extforcing_qsw_del2          =   0.0000000000000E+00
(PID.TID 0000.0001) %MON extforcing_empmr_max         =   0.0000000000000E+00
(PID.TID 0000.0001) %MON extforcing_empmr_min         =   0.0000000000000E+00
(PID.TID 0000.0001) %MON extforcing_empmr_mean        =   0.0000000000000E+00
(PID.TID 0000.0001) %MON extforcing_empmr_sd          =   0.0000000000000E+00
(PID.TID 0000.0001) %MON extforcing_empmr_del2        =   0.0000000000000E+00
(PID.TID 0000.0001) %MON extforcing_fu_max            =   3.0662205368280E-01
(PID.TID 0000.0001) %MON extforcing_fu_min            =  -2.2380929514766E-01
(PID.TID 0000.0001) %MON extforcing_fu_mean           =   1.7772041000823E-02
(PID.TID 0000.0001) %MON extforcing_fu_sd             =   9.3029172628254E-02
(PID.TID 0000.0001) %MON extforcing_fu_del2           =   8.0577607168390E-03
(PID.TID 0000.0001) %MON extforcing_fv_max            =   1.9305492658168E-01
(PID.TID 0000.0001) %MON extforcing_fv_min            =  -1.9745020121336E-01
(PID.TID 0000.0001) %MON extforcing_fv_mean           =  -7.2323674659145E-03
(PID.TID 0000.0001) %MON extforcing_fv_sd             =   4.4575549984293E-02
(PID.TID 0000.0001) %MON extforcing_fv_del2           =   5.0264558607569E-03
(PID.TID 0000.0001) %MON advcfl_uvel_max              =   2.1918389998731E-02
(PID.TID 0000.0001) %MON advcfl_vvel_max              =   1.5224746490572E-02
(PID.TID 0000.0001) %MON advcfl_wvel_max              =   8.3820274418918E-02
(PID.TID 0000.0001) %MON advcfl_W_hf_max              =   7.7405230776034E-02
(PID.TID 0000.0001) %MON pe_b_mean                    =   2.8681981386605E-04
(PID.TID 0000.0001) %MON ke_max                       =   1.4603501594214E-02
(PID.TID 0000.0001) %MON ke_mean                      =   1.7046155585420E-04
(PID.TID 0000.0001) %MON ke_vol                       =   1.3226782436723E+18
(PID.TID 0000.0001) %MON vort_r_min                   =  -4.7287325175975E-07
(PID.TID 0000.0001) %MON vort_r_max                   =   3.8186984601366E-07
(PID.TID 0000.0001) %MON vort_a_mean                  =  -2.5205769064742E-05
(PID.TID 0000.0001) %MON vort_a_sd                    =   7.3403564337259E-05
(PID.TID 0000.0001) %MON vort_p_mean                  =  -3.1758669143319E-05
(PID.TID 0000.0001) %MON vort_p_sd                    =   1.3126395880996E-04
(PID.TID 0000.0001) %MON surfExpan_theta_mean         =   1.4292247772297E-05
(PID.TID 0000.0001) %MON surfExpan_salt_mean          =   2.5669598171904E-07
(PID.TID 0000.0001) // =======================================================
(PID.TID 0000.0001) // End MONITOR dynamic field statistics
(PID.TID 0000.0001) // =======================================================
time,SST,SSS,fu,fv,Q,E-P,i0,i1,a,b =   4.0608E+06 -5.0866E-01  3.4432E+01 -1.5286E-02 -1.6498E-02  2.3881E+02  0.0000E+00     2     3  6.6667E-02  9.3333E-01
time,fu0,fu1,fu =   4.0608E+06 -1.4435E-02 -2.7199E-02 -1.5286E-02  6.666666666666667E-02  9.333333333333333E-01
 cg2d: Sum(rhs),rhsMax =   3.19255732961210E-12  9.44424370111448E+00
(PID.TID 0000.0001)                    cg2d_init_res =    2.98225793758273E-01
(PID.TID 0000.0001)                       cg2d_iters =    24
(PID.TID 0000.0001)                         cg2d_res =    6.57011307730137E-14
(PID.TID 0000.0001) // =======================================================
(PID.TID 0000.0001) // Begin MONITOR dynamic field statistics
(PID.TID 0000.0001) // =======================================================
(PID.TID 0000.0001) %MON time_tsnumber                =                    95
(PID.TID 0000.0001) %MON time_secondsf                =   4.1040000000000E+06
(PID.TID 0000.0001) %MON dynstat_eta_max              =   1.1223807415148E+00
(PID.TID 0000.0001) %MON dynstat_eta_min              =  -1.5335513396961E+00
(PID.TID 0000.0001) %MON dynstat_eta_mean             =  -2.1979146178373E-15
(PID.TID 0000.0001) %MON dynstat_eta_sd               =   4.7548285062583E-01
(PID.TID 0000.0001) %MON dynstat_eta_del2             =   2.6353113990337E-02
(PID.TID 0000.0001) %MON dynstat_uvel_max             =   1.3270126805808E-01
(PID.TID 0000.0001) %MON dynstat_uvel_min             =  -1.3072956099647E-01
(PID.TID 0000.0001) %MON dynstat_uvel_mean            =   1.3088755192779E-03
(PID.TID 0000.0001) %MON dynstat_uvel_sd              =   1.3247336739236E-02
(PID.TID 0000.0001) %MON dynstat_uvel_del2            =   3.3094345348892E-03
(PID.TID 0000.0001) %MON dynstat_vvel_max             =   1.5576058065950E-01
(PID.TID 0000.0001) %MON dynstat_vvel_min             =  -1.2798929136064E-01
(PID.TID 0000.0001) %MON dynstat_vvel_mean            =  -5.5794155180021E-05
(PID.TID 0000.0001) %MON dynstat_vvel_sd              =   1.4165973192234E-02
(PID.TID 0000.0001) %MON dynstat_vvel_del2            =   3.3920999107571E-03
(PID.TID 0000.0001) %MON dynstat_wvel_max             =   1.5917217529795E-04
(PID.TID 0000.0001) %MON dynstat_wvel_min             =  -1.6766343132736E-04
(PID.TID 0000.0001) %MON dynstat_wvel_mean            =   8.1127896238141E-23
(PID.TID 0000.0001) %MON dynstat_wvel_sd              =   1.8932371538671E-05
(PID.TID 0000.0001) %MON dynstat_wvel_del2            =   6.3387344961760E-06
(PID.TID 0000.0001) %MON dynstat_theta_max            =   3.0146173107108E+01
(PID.TID 0000.0001) %MON dynstat_theta_min            =  -2.0175517573573E+00
(PID.TID 0000.0001) %MON dynstat_theta_mean           =   3.5880268397151E+00
(PID.TID 0000.0001) %MON dynstat_theta_sd             =   4.3400093108874E+00
(PID.TID 0000.0001) %MON dynstat_theta_del2           =   1.3989516082964E-01
(PID.TID 0000.0001) %MON dynstat_salt_max             =   3.7385855363681E+01
(PID.TID 0000.0001) %MON dynstat_salt_min             =   2.9888476880360E+01
(PID.TID 0000.0001) %MON dynstat_salt_mean            =   3.4715955353705E+01
(PID.TID 0000.0001) %MON dynstat_salt_sd              =   2.9546374053690E-01
(PID.TID 0000.0001) %MON dynstat_salt_del2            =   2.5411171300290E-02
(PID.TID 0000.0001) %MON dynstat_sst_max              =   3.0146173107108E+01
(PID.TID 0000.0001) %MON dynstat_sst_min              =  -1.9316390132384E+00
(PID.TID 0000.0001) %MON dynstat_sst_mean             =   1.8653521985238E+01
(PID.TID 0000.0001) %MON dynstat_sst_sd               =   8.9371427817518E+00
(PID.TID 0000.0001) %MON dynstat_sst_del2             =   2.6817660636123E-01
(PID.TID 0000.0001) %MON dynstat_sss_max              =   3.7385854357231E+01
(PID.TID 0000.0001) %MON dynstat_sss_min              =   2.9888476880360E+01
(PID.TID 0000.0001) %MON dynstat_sss_mean             =   3.4837991446656E+01
(PID.TID 0000.0001) %MON dynstat_sss_sd               =   9.5620635016560E-01
(PID.TID 0000.0001) %MON dynstat_sss_del2             =   7.8613487124320E-02
(PID.TID 0000.0001) %MON extforcing_qnet_max          =   3.5285593668620E+02
(PID.TID 0000.0001) %MON extforcing_qnet_min          =  -1.7223541056315E+02
(PID.TID 0000.0001) %MON extforcing_qnet_mean         =  -1.3518571979690E+01
(PID.TID 0000.0001) %MON extforcing_qnet_sd           =   7.6758869987334E+01
(PID.TID 0000.0001) %MON extforcing_qnet_del2         =   8.4518732226783E+00
(PID.TID 0000.0001) %MON extforcing_qsw_max           =   0.0000000000000E+00
(PID.TID 0000.0001) %MON extforcing_qsw_min           =   0.0000000000000E+00
(PID.TID 0000.0001) %MON extforcing_qsw_mean          =   0.0000000000000E+00
(PID.TID 0000.0001) %MON extforcing_qsw_sd            =   0.0000000000000E+00
(PID.TID 0000.0001) %MON extforcing_qsw_del2          =   0.0000000000000E+00
(PID.TID 0000.0001) %MON extforcing_empmr_max         =   0.0000000000000E+00
(PID.TID 0000.0001) %MON extforcing_empmr_min         =   0.0000000000000E+00
(PID.TID 0000.0001) %MON extforcing_empmr_mean        =   0.0000000000000E+00
(PID.TID 0000.0001) %MON extforcing_empmr_sd          =   0.0000000000000E+00
(PID.TID 0000.0001) %MON extforcing_empmr_del2        =   0.0000000000000E+00
(PID.TID 0000.0001) %MON extforcing_fu_max            =   3.0728422999382E-01
(PID.TID 0000.0001) %MON extforcing_fu_min            =  -2.2650160988172E-01
(PID.TID 0000.0001) %MON extforcing_fu_mean           =   1.7819140795553E-02
(PID.TID 0000.0001) %MON extforcing_fu_sd             =   9.3044945573839E-02
(PID.TID 0000.0001) %MON extforcing_fu_del2           =   8.0401557684448E-03
(PID.TID 0000.0001) %MON extforcing_fv_max            =   1.9021158044537E-01
(PID.TID 0000.0001) %MON extforcing_fv_min            =  -1.9670718312263E-01
(PID.TID 0000.0001) %MON extforcing_fv_mean           =  -7.2375816408993E-03
(PID.TID 0000.0001) %MON extforcing_fv_sd             =   4.4424183443592E-02
(PID.TID 0000.0001) %MON extforcing_fv_del2           =   4.9947300949647E-03
(PID.TID 0000.0001) %MON advcfl_uvel_max              =   2.3111866605954E-02
(PID.TID 0000.0001) %MON advcfl_vvel_max              =   1.5130891361381E-02
(PID.TID 0000.0001) %MON advcfl_wvel_max              =   7.7071129627966E-02
(PID.TID 0000.0001) %MON advcfl_W_hf_max              =   7.1120808969365E-02
(PID.TID 0000.0001) %MON pe_b_mean                    =   2.8930165335308E-04
(PID.TID 0000.0001) %MON ke_max                       =   1.4470788719716E-02
(PID.TID 0000.0001) %MON ke_mean                      =   1.7060006350958E-04
(PID.TID 0000.0001) %MON ke_vol                       =   1.3226782436723E+18
(PID.TID 0000.0001) %MON vort_r_min                   =  -4.7368353312449E-07
(PID.TID 0000.0001) %MON vort_r_max                   =   3.8342283961084E-07
(PID.TID 0000.0001) %MON vort_a_mean                  =  -2.5205769057048E-05
(PID.TID 0000.0001) %MON vort_a_sd                    =   7.3403549913579E-05
(PID.TID 0000.0001) %MON vort_p_mean                  =  -3.1758669133625E-05
(PID.TID 0000.0001) %MON vort_p_sd                    =   1.3126391991649E-04
(PID.TID 0000.0001) %MON surfExpan_theta_mean         =   1.4373383117037E-05
(PID.TID 0000.0001) %MON surfExpan_salt_mean          =   2.9541916276074E-07
(PID.TID 0000.0001) // =======================================================
(PID.TID 0000.0001) // End MONITOR dynamic field statistics
(PID.TID 0000.0001) // =======================================================
time,SST,SSS,fu,fv,Q,E-P,i0,i1,a,b =   4.1040E+06 -5.0286E-01  3.4434E+01 -1.5498E-02 -1.6214E-02  2.3839E+02  0.0000E+00     2     3  8.3333E-02  9.1667E-01
time,fu0,fu1,fu =   4.1040E+06 -1.4435E-02 -2.7199E-02 -1.5498E-02  8.333333333333333E-02  9.166666666666666E-01
 cg2d: Sum(rhs),rhsMax =   3.23483601016861E-12  9.74175914288518E+00
(PID.TID 0000.0001)                    cg2d_init_res =    2.78515980633356E-01
(PID.TID 0000.0001)                       cg2d_iters =    24
(PID.TID 0000.0001)                         cg2d_res =    6.46290182759819E-14
(PID.TID 0000.0001) // =======================================================
(PID.TID 0000.0001) // Begin MONITOR dynamic field statistics
(PID.TID 0000.0001) // =======================================================
(PID.TID 0000.0001) %MON time_tsnumber                =                    96
(PID.TID 0000.0001) %MON time_secondsf                =   4.1472000000000E+06
(PID.TID 0000.0001) %MON dynstat_eta_max              =   1.1573263459087E+00
(PID.TID 0000.0001) %MON dynstat_eta_min              =  -1.5330565033122E+00
(PID.TID 0000.0001) %MON dynstat_eta_mean             =  -1.8238445452306E-15
(PID.TID 0000.0001) %MON dynstat_eta_sd               =   4.7754796266033E-01
(PID.TID 0000.0001) %MON dynstat_eta_del2             =   2.6491855513154E-02
(PID.TID 0000.0001) %MON dynstat_uvel_max             =   1.2692018356380E-01
(PID.TID 0000.0001) %MON dynstat_uvel_min             =  -1.3055193819731E-01
(PID.TID 0000.0001) %MON dynstat_uvel_mean            =   1.2618577102627E-03
(PID.TID 0000.0001) %MON dynstat_uvel_sd              =   1.3301269595959E-02
(PID.TID 0000.0001) %MON dynstat_uvel_del2            =   3.3047710714389E-03
(PID.TID 0000.0001) %MON dynstat_vvel_max             =   1.5459073155764E-01
(PID.TID 0000.0001) %MON dynstat_vvel_min             =  -1.3038035114662E-01
(PID.TID 0000.0001) %MON dynstat_vvel_mean            =   2.1022024046750E-05
(PID.TID 0000.0001) %MON dynstat_vvel_sd              =   1.4158997268804E-02
(PID.TID 0000.0001) %MON dynstat_vvel_del2            =   3.3909097189478E-03
(PID.TID 0000.0001) %MON dynstat_wvel_max             =   1.5643893544886E-04
(PID.TID 0000.0001) %MON dynstat_wvel_min             =  -1.7183292951206E-04
(PID.TID 0000.0001) %MON dynstat_wvel_mean            =  -3.5716229467690E-22
(PID.TID 0000.0001) %MON dynstat_wvel_sd              =   1.8911157563192E-05
(PID.TID 0000.0001) %MON dynstat_wvel_del2            =   6.2936888181457E-06
(PID.TID 0000.0001) %MON dynstat_theta_max            =   3.0209364994297E+01
(PID.TID 0000.0001) %MON dynstat_theta_min            =  -2.0162152071463E+00
(PID.TID 0000.0001) %MON dynstat_theta_mean           =   3.5879014585973E+00
(PID.TID 0000.0001) %MON dynstat_theta_sd             =   4.3397169698015E+00
(PID.TID 0000.0001) %MON dynstat_theta_del2           =   1.3988470485798E-01
(PID.TID 0000.0001) %MON dynstat_salt_max             =   3.7385387593593E+01
(PID.TID 0000.0001) %MON dynstat_salt_min             =   2.9888739615159E+01
(PID.TID 0000.0001) %MON dynstat_salt_mean            =   3.4715952186419E+01
(PID.TID 0000.0001) %MON dynstat_salt_sd              =   2.9546600030467E-01
(PID.TID 0000.0001) %MON dynstat_salt_del2            =   2.5389991744329E-02
(PID.TID 0000.0001) %MON dynstat_sst_max              =   3.0209364994297E+01
(PID.TID 0000.0001) %MON dynstat_sst_min              =  -1.9311062464270E+00
(PID.TID 0000.0001) %MON dynstat_sst_mean             =   1.8655406077091E+01
(PID.TID 0000.0001) %MON dynstat_sst_sd               =   8.9374176099915E+00
(PID.TID 0000.0001) %MON dynstat_sst_del2             =   2.6799243986561E-01
(PID.TID 0000.0001) %MON dynstat_sss_max              =   3.7385386632496E+01
(PID.TID 0000.0001) %MON dynstat_sss_min              =   2.9888739615159E+01
(PID.TID 0000.0001) %MON dynstat_sss_mean             =   3.4837874750485E+01
(PID.TID 0000.0001) %MON dynstat_sss_sd               =   9.5613674477266E-01
(PID.TID 0000.0001) %MON dynstat_sss_del2             =   7.8520748157437E-02
(PID.TID 0000.0001) %MON extforcing_qnet_max          =   3.5145686086019E+02
(PID.TID 0000.0001) %MON extforcing_qnet_min          =  -1.7208577092489E+02
(PID.TID 0000.0001) %MON extforcing_qnet_mean         =  -1.3406902229877E+01
(PID.TID 0000.0001) %MON extforcing_qnet_sd           =   7.6056148434726E+01
(PID.TID 0000.0001) %MON extforcing_qnet_del2         =   8.4214448847354E+00
(PID.TID 0000.0001) %MON extforcing_qsw_max           =   0.0000000000000E+00
(PID.TID 0000.0001) %MON extforcing_qsw_min           =   0.0000000000000E+00
(PID.TID 0000.0001) %MON extforcing_qsw_mean          =   0.0000000000000E+00
(PID.TID 0000.0001) %MON extforcing_qsw_sd            =   0.0000000000000E+00
(PID.TID 0000.0001) %MON extforcing_qsw_del2          =   0.0000000000000E+00
(PID.TID 0000.0001) %MON extforcing_empmr_max         =   0.0000000000000E+00
(PID.TID 0000.0001) %MON extforcing_empmr_min         =   0.0000000000000E+00
(PID.TID 0000.0001) %MON extforcing_empmr_mean        =   0.0000000000000E+00
(PID.TID 0000.0001) %MON extforcing_empmr_sd          =   0.0000000000000E+00
(PID.TID 0000.0001) %MON extforcing_empmr_del2        =   0.0000000000000E+00
(PID.TID 0000.0001) %MON extforcing_fu_max            =   3.0794640630484E-01
(PID.TID 0000.0001) %MON extforcing_fu_min            =  -2.2919392461578E-01
(PID.TID 0000.0001) %MON extforcing_fu_mean           =   1.7866240590282E-02
(PID.TID 0000.0001) %MON extforcing_fu_sd             =   9.3066134907514E-02
(PID.TID 0000.0001) %MON extforcing_fu_del2           =   8.0243493009621E-03
(PID.TID 0000.0001) %MON extforcing_fv_max            =   1.8736823430906E-01
(PID.TID 0000.0001) %MON extforcing_fv_min            =  -1.9596416503191E-01
(PID.TID 0000.0001) %MON extforcing_fv_mean           =  -7.2427958158840E-03
(PID.TID 0000.0001) %MON extforcing_fv_sd             =   4.4276565345964E-02
(PID.TID 0000.0001) %MON extforcing_fv_del2           =   4.9639875227901E-03
(PID.TID 0000.0001) %MON advcfl_uvel_max              =   2.4195298798168E-02
(PID.TID 0000.0001) %MON advcfl_vvel_max              =   1.5017249902198E-02
(PID.TID 0000.0001) %MON advcfl_wvel_max              =   7.0893696028198E-02
(PID.TID 0000.0001) %MON advcfl_W_hf_max              =   6.6201904137324E-02
(PID.TID 0000.0001) %MON pe_b_mean                    =   2.9182009423216E-04
(PID.TID 0000.0001) %MON ke_max                       =   1.4330280684439E-02
(PID.TID 0000.0001) %MON ke_mean                      =   1.7110575065843E-04
(PID.TID 0000.0001) %MON ke_vol                       =   1.3226782436723E+18
(PID.TID 0000.0001) %MON vort_r_min                   =  -4.7394421695933E-07
(PID.TID 0000.0001) %MON vort_r_max                   =   3.8486719449481E-07
(PID.TID 0000.0001) %MON vort_a_mean                  =  -2.5205769050123E-05
(PID.TID 0000.0001) %MON vort_a_sd                    =   7.3403535670695E-05
(PID.TID 0000.0001) %MON vort_p_mean                  =  -3.1758669124899E-05
(PID.TID 0000.0001) %MON vort_p_sd                    =   1.3126388885199E-04
(PID.TID 0000.0001) %MON surfExpan_theta_mean         =   1.4366080964138E-05
(PID.TID 0000.0001) %MON surfExpan_salt_mean          =   3.2894605436412E-07
(PID.TID 0000.0001) // =======================================================
(PID.TID 0000.0001) // End MONITOR dynamic field statistics
(PID.TID 0000.0001) // =======================================================
time,SST,SSS,fu,fv,Q,E-P,i0,i1,a,b =   4.1472E+06 -4.9706E-01  3.4437E+01 -1.5711E-02 -1.5930E-02  2.3797E+02  0.0000E+00     2     3  1.0000E-01  9.0000E-01
time,fu0,fu1,fu =   4.1472E+06 -1.4435E-02 -2.7199E-02 -1.5711E-02  1.000000000000000E-01  9.000000000000000E-01
 cg2d: Sum(rhs),rhsMax =   3.16754955598242E-12  9.97004063040942E+00
(PID.TID 0000.0001)                    cg2d_init_res =    2.62170567436502E-01
(PID.TID 0000.0001)                       cg2d_iters =    24
(PID.TID 0000.0001)                         cg2d_res =    6.30074065997263E-14
(PID.TID 0000.0001) // =======================================================
(PID.TID 0000.0001) // Begin MONITOR dynamic field statistics
(PID.TID 0000.0001) // =======================================================
(PID.TID 0000.0001) %MON time_tsnumber                =                    97
(PID.TID 0000.0001) %MON time_secondsf                =   4.1904000000000E+06
(PID.TID 0000.0001) %MON dynstat_eta_max              =   1.1841669479051E+00
(PID.TID 0000.0001) %MON dynstat_eta_min              =  -1.5298958400546E+00
(PID.TID 0000.0001) %MON dynstat_eta_mean             =  -1.8243115137343E-15
(PID.TID 0000.0001) %MON dynstat_eta_sd               =   4.7961521841644E-01
(PID.TID 0000.0001) %MON dynstat_eta_del2             =   2.6603819459529E-02
(PID.TID 0000.0001) %MON dynstat_uvel_max             =   1.3162096962030E-01
(PID.TID 0000.0001) %MON dynstat_uvel_min             =  -1.3036915784025E-01
(PID.TID 0000.0001) %MON dynstat_uvel_mean            =   1.2186713823863E-03
(PID.TID 0000.0001) %MON dynstat_uvel_sd              =   1.3388660342810E-02
(PID.TID 0000.0001) %MON dynstat_uvel_del2            =   3.3030445516759E-03
(PID.TID 0000.0001) %MON dynstat_vvel_max             =   1.5321937624776E-01
(PID.TID 0000.0001) %MON dynstat_vvel_min             =  -1.3196059582079E-01
(PID.TID 0000.0001) %MON dynstat_vvel_mean            =   1.0185839504317E-04
(PID.TID 0000.0001) %MON dynstat_vvel_sd              =   1.4146704116700E-02
(PID.TID 0000.0001) %MON dynstat_vvel_del2            =   3.3891530644416E-03
(PID.TID 0000.0001) %MON dynstat_wvel_max             =   1.5340770654997E-04
(PID.TID 0000.0001) %MON dynstat_wvel_min             =  -1.7609964444141E-04
(PID.TID 0000.0001) %MON dynstat_wvel_mean            =   1.8815157841150E-22
(PID.TID 0000.0001) %MON dynstat_wvel_sd              =   1.8868384974291E-05
(PID.TID 0000.0001) %MON dynstat_wvel_del2            =   6.2501751250973E-06
(PID.TID 0000.0001) %MON dynstat_theta_max            =   3.0258988650936E+01
(PID.TID 0000.0001) %MON dynstat_theta_min            =  -2.0148909069403E+00
(PID.TID 0000.0001) %MON dynstat_theta_mean           =   3.5877764068996E+00
(PID.TID 0000.0001) %MON dynstat_theta_sd             =   4.3394227767591E+00
(PID.TID 0000.0001) %MON dynstat_theta_del2           =   1.3986790198079E-01
(PID.TID 0000.0001) %MON dynstat_salt_max             =   3.7384925862035E+01
(PID.TID 0000.0001) %MON dynstat_salt_min             =   2.9888958382896E+01
(PID.TID 0000.0001) %MON dynstat_salt_mean            =   3.4715948679525E+01
(PID.TID 0000.0001) %MON dynstat_salt_sd              =   2.9546667001238E-01
(PID.TID 0000.0001) %MON dynstat_salt_del2            =   2.5369612593452E-02
(PID.TID 0000.0001) %MON dynstat_sst_max              =   3.0258988650936E+01
(PID.TID 0000.0001) %MON dynstat_sst_min              =  -1.9304195035355E+00
(PID.TID 0000.0001) %MON dynstat_sst_mean             =   1.8657564361213E+01
(PID.TID 0000.0001) %MON dynstat_sst_sd               =   8.9375063551092E+00
(PID.TID 0000.0001) %MON dynstat_sst_del2             =   2.6779373576509E-01
(PID.TID 0000.0001) %MON dynstat_sss_max              =   3.7384924940062E+01
(PID.TID 0000.0001) %MON dynstat_sss_min              =   2.9888958382896E+01
(PID.TID 0000.0001) %MON dynstat_sss_mean             =   3.4837786570934E+01
(PID.TID 0000.0001) %MON dynstat_sss_sd               =   9.5605079857396E-01
(PID.TID 0000.0001) %MON dynstat_sss_del2             =   7.8441053533766E-02
(PID.TID 0000.0001) %MON extforcing_qnet_max          =   3.5005778503418E+02
(PID.TID 0000.0001) %MON extforcing_qnet_min          =  -1.7193613128662E+02
(PID.TID 0000.0001) %MON extforcing_qnet_mean         =  -1.3295232480064E+01
(PID.TID 0000.0001) %MON extforcing_qnet_sd           =   7.5356710185275E+01
(PID.TID 0000.0001) %MON extforcing_qnet_del2         =   8.3916233786239E+00
(PID.TID 0000.0001) %MON extforcing_qsw_max           =   0.0000000000000E+00
(PID.TID 0000.0001) %MON extforcing_qsw_min           =   0.0000000000000E+00
(PID.TID 0000.0001) %MON extforcing_qsw_mean          =   0.0000000000000E+00
(PID.TID 0000.0001) %MON extforcing_qsw_sd            =   0.0000000000000E+00
(PID.TID 0000.0001) %MON extforcing_qsw_del2          =   0.0000000000000E+00
(PID.TID 0000.0001) %MON extforcing_empmr_max         =   0.0000000000000E+00
(PID.TID 0000.0001) %MON extforcing_empmr_min         =   0.0000000000000E+00
(PID.TID 0000.0001) %MON extforcing_empmr_mean        =   0.0000000000000E+00
(PID.TID 0000.0001) %MON extforcing_empmr_sd          =   0.0000000000000E+00
(PID.TID 0000.0001) %MON extforcing_empmr_del2        =   0.0000000000000E+00
(PID.TID 0000.0001) %MON extforcing_fu_max            =   3.0860858261585E-01
(PID.TID 0000.0001) %MON extforcing_fu_min            =  -2.3188623934984E-01
(PID.TID 0000.0001) %MON extforcing_fu_mean           =   1.7913340385011E-02
(PID.TID 0000.0001) %MON extforcing_fu_sd             =   9.3092736930720E-02
(PID.TID 0000.0001) %MON extforcing_fu_del2           =   8.0107295317272E-03
(PID.TID 0000.0001) %MON extforcing_fv_max            =   1.8452488817275E-01
(PID.TID 0000.0001) %MON extforcing_fv_min            =  -1.9522114694119E-01
(PID.TID 0000.0001) %MON extforcing_fv_mean           =  -7.2480099908687E-03
(PID.TID 0000.0001) %MON extforcing_fv_sd             =   4.4132733305549E-02
(PID.TID 0000.0001) %MON extforcing_fv_del2           =   4.9336087311549E-03
(PID.TID 0000.0001) %MON advcfl_uvel_max              =   2.5143273241261E-02
(PID.TID 0000.0001) %MON advcfl_vvel_max              =   1.4884033730791E-02
(PID.TID 0000.0001) %MON advcfl_wvel_max              =   6.3847159537380E-02
(PID.TID 0000.0001) %MON advcfl_W_hf_max              =   6.7861838374993E-02
(PID.TID 0000.0001) %MON pe_b_mean                    =   2.9435208078244E-04
(PID.TID 0000.0001) %MON ke_max                       =   1.4181847884707E-02
(PID.TID 0000.0001) %MON ke_mean                      =   1.7196499295412E-04
(PID.TID 0000.0001) %MON ke_vol                       =   1.3226782436723E+18
(PID.TID 0000.0001) %MON vort_r_min                   =  -4.7371374742894E-07
(PID.TID 0000.0001) %MON vort_r_max                   =   3.8620841609996E-07
(PID.TID 0000.0001) %MON vort_a_mean                  =  -2.5205769044287E-05
(PID.TID 0000.0001) %MON vort_a_sd                    =   7.3403521884811E-05
(PID.TID 0000.0001) %MON vort_p_mean                  =  -3.1758669117547E-05
(PID.TID 0000.0001) %MON vort_p_sd                    =   1.3126386623209E-04
(PID.TID 0000.0001) %MON surfExpan_theta_mean         =   1.4274545060760E-05
(PID.TID 0000.0001) %MON surfExpan_salt_mean          =   3.5581321807406E-07
(PID.TID 0000.0001) // =======================================================
(PID.TID 0000.0001) // End MONITOR dynamic field statistics
(PID.TID 0000.0001) // =======================================================
time,SST,SSS,fu,fv,Q,E-P,i0,i1,a,b =   4.1904E+06 -4.9126E-01  3.4440E+01 -1.5924E-02 -1.5646E-02  2.3755E+02  0.0000E+00     2     3  1.1667E-01  8.8333E-01
time,fu0,fu1,fu =   4.1904E+06 -1.4435E-02 -2.7199E-02 -1.5924E-02  1.166666666666667E-01  8.833333333333333E-01
 cg2d: Sum(rhs),rhsMax =   3.16514175979776E-12  1.01269749889254E+01
(PID.TID 0000.0001)                    cg2d_init_res =    2.49331355084054E-01
(PID.TID 0000.0001)                       cg2d_iters =    24
(PID.TID 0000.0001)                         cg2d_res =    6.12877191676188E-14
(PID.TID 0000.0001) // =======================================================
(PID.TID 0000.0001) // Begin MONITOR dynamic field statistics
(PID.TID 0000.0001) // =======================================================
(PID.TID 0000.0001) %MON time_tsnumber                =                    98
(PID.TID 0000.0001) %MON time_secondsf                =   4.2336000000000E+06
(PID.TID 0000.0001) %MON dynstat_eta_max              =   1.2026534151529E+00
(PID.TID 0000.0001) %MON dynstat_eta_min              =  -1.5244244302103E+00
(PID.TID 0000.0001) %MON dynstat_eta_mean             =  -1.7852630414302E-15
(PID.TID 0000.0001) %MON dynstat_eta_sd               =   4.8166790246845E-01
(PID.TID 0000.0001) %MON dynstat_eta_del2             =   2.6695863488175E-02
(PID.TID 0000.0001) %MON dynstat_uvel_max             =   1.4106887544683E-01
(PID.TID 0000.0001) %MON dynstat_uvel_min             =  -1.3018059172330E-01
(PID.TID 0000.0001) %MON dynstat_uvel_mean            =   1.1802754018597E-03
(PID.TID 0000.0001) %MON dynstat_uvel_sd              =   1.3507284426927E-02
(PID.TID 0000.0001) %MON dynstat_uvel_del2            =   3.3034028431400E-03
(PID.TID 0000.0001) %MON dynstat_vvel_max             =   1.5164864787108E-01
(PID.TID 0000.0001) %MON dynstat_vvel_min             =  -1.3272447009398E-01
(PID.TID 0000.0001) %MON dynstat_vvel_mean            =   1.8634398222682E-04
(PID.TID 0000.0001) %MON dynstat_vvel_sd              =   1.4128825196732E-02
(PID.TID 0000.0001) %MON dynstat_vvel_del2            =   3.3870460708085E-03
(PID.TID 0000.0001) %MON dynstat_wvel_max             =   1.5009183010479E-04
(PID.TID 0000.0001) %MON dynstat_wvel_min             =  -1.8023118064675E-04
(PID.TID 0000.0001) %MON dynstat_wvel_mean            =  -3.2143803728620E-22
(PID.TID 0000.0001) %MON dynstat_wvel_sd              =   1.8806785157510E-05
(PID.TID 0000.0001) %MON dynstat_wvel_del2            =   6.2097825260248E-06
(PID.TID 0000.0001) %MON dynstat_theta_max            =   3.0294267325686E+01
(PID.TID 0000.0001) %MON dynstat_theta_min            =  -2.0135882927629E+00
(PID.TID 0000.0001) %MON dynstat_theta_mean           =   3.5876525639598E+00
(PID.TID 0000.0001) %MON dynstat_theta_sd             =   4.3391312257255E+00
(PID.TID 0000.0001) %MON dynstat_theta_del2           =   1.3984213030809E-01
(PID.TID 0000.0001) %MON dynstat_salt_max             =   3.7384477170315E+01
(PID.TID 0000.0001) %MON dynstat_salt_min             =   2.9889121024805E+01
(PID.TID 0000.0001) %MON dynstat_salt_mean            =   3.4715944916278E+01
(PID.TID 0000.0001) %MON dynstat_salt_sd              =   2.9546549288804E-01
(PID.TID 0000.0001) %MON dynstat_salt_del2            =   2.5347062071849E-02
(PID.TID 0000.0001) %MON dynstat_sst_max              =   3.0294267325686E+01
(PID.TID 0000.0001) %MON dynstat_sst_min              =  -1.9296002866281E+00
(PID.TID 0000.0001) %MON dynstat_sst_mean             =   1.8659843591478E+01
(PID.TID 0000.0001) %MON dynstat_sst_sd               =   8.9377070459695E+00
(PID.TID 0000.0001) %MON dynstat_sst_del2             =   2.6756073641169E-01
(PID.TID 0000.0001) %MON dynstat_sss_max              =   3.7384476281349E+01
(PID.TID 0000.0001) %MON dynstat_sss_min              =   2.9889121024805E+01
(PID.TID 0000.0001) %MON dynstat_sss_mean             =   3.4837708199456E+01
(PID.TID 0000.0001) %MON dynstat_sss_sd               =   9.5597379351154E-01
(PID.TID 0000.0001) %MON dynstat_sss_del2             =   7.8351283015147E-02
(PID.TID 0000.0001) %MON extforcing_qnet_max          =   3.4865870920817E+02
(PID.TID 0000.0001) %MON extforcing_qnet_min          =  -1.7178649164836E+02
(PID.TID 0000.0001) %MON extforcing_qnet_mean         =  -1.3183562730250E+01
(PID.TID 0000.0001) %MON extforcing_qnet_sd           =   7.4660647515271E+01
(PID.TID 0000.0001) %MON extforcing_qnet_del2         =   8.3619329009166E+00
(PID.TID 0000.0001) %MON extforcing_qsw_max           =   0.0000000000000E+00
(PID.TID 0000.0001) %MON extforcing_qsw_min           =   0.0000000000000E+00
(PID.TID 0000.0001) %MON extforcing_qsw_mean          =   0.0000000000000E+00
(PID.TID 0000.0001) %MON extforcing_qsw_sd            =   0.0000000000000E+00
(PID.TID 0000.0001) %MON extforcing_qsw_del2          =   0.0000000000000E+00
(PID.TID 0000.0001) %MON extforcing_empmr_max         =   0.0000000000000E+00
(PID.TID 0000.0001) %MON extforcing_empmr_min         =   0.0000000000000E+00
(PID.TID 0000.0001) %MON extforcing_empmr_mean        =   0.0000000000000E+00
(PID.TID 0000.0001) %MON extforcing_empmr_sd          =   0.0000000000000E+00
(PID.TID 0000.0001) %MON extforcing_empmr_del2        =   0.0000000000000E+00
(PID.TID 0000.0001) %MON extforcing_fu_max            =   3.0927075892687E-01
(PID.TID 0000.0001) %MON extforcing_fu_min            =  -2.3457855408390E-01
(PID.TID 0000.0001) %MON extforcing_fu_mean           =   1.7960440179740E-02
(PID.TID 0000.0001) %MON extforcing_fu_sd             =   9.3124747004889E-02
(PID.TID 0000.0001) %MON extforcing_fu_del2           =   7.9994392501212E-03
(PID.TID 0000.0001) %MON extforcing_fv_max            =   1.8168154203643E-01
(PID.TID 0000.0001) %MON extforcing_fv_min            =  -1.9447812885046E-01
(PID.TID 0000.0001) %MON extforcing_fv_mean           =  -7.2532241658535E-03
(PID.TID 0000.0001) %MON extforcing_fv_sd             =   4.3992724457346E-02
(PID.TID 0000.0001) %MON extforcing_fv_del2           =   4.9041989793222E-03
(PID.TID 0000.0001) %MON advcfl_uvel_max              =   2.5933601967272E-02
(PID.TID 0000.0001) %MON advcfl_vvel_max              =   1.4731450064723E-02
(PID.TID 0000.0001) %MON advcfl_wvel_max              =   5.5674154158387E-02
(PID.TID 0000.0001) %MON advcfl_W_hf_max              =   6.8958882352749E-02
(PID.TID 0000.0001) %MON pe_b_mean                    =   2.9687704149441E-04
(PID.TID 0000.0001) %MON ke_max                       =   1.4025327953879E-02
(PID.TID 0000.0001) %MON ke_mean                      =   1.7315661561772E-04
(PID.TID 0000.0001) %MON ke_vol                       =   1.3226782436723E+18
(PID.TID 0000.0001) %MON vort_r_min                   =  -4.7306609244017E-07
(PID.TID 0000.0001) %MON vort_r_max                   =   3.8745442050548E-07
(PID.TID 0000.0001) %MON vort_a_mean                  =  -2.5205769039791E-05
(PID.TID 0000.0001) %MON vort_a_sd                    =   7.3403508804441E-05
(PID.TID 0000.0001) %MON vort_p_mean                  =  -3.1758669111881E-05
(PID.TID 0000.0001) %MON vort_p_sd                    =   1.3126385239846E-04
(PID.TID 0000.0001) %MON surfExpan_theta_mean         =   1.4105405155584E-05
(PID.TID 0000.0001) %MON surfExpan_salt_mean          =   3.7506733000911E-07
(PID.TID 0000.0001) // =======================================================
(PID.TID 0000.0001) // End MONITOR dynamic field statistics
(PID.TID 0000.0001) // =======================================================
time,SST,SSS,fu,fv,Q,E-P,i0,i1,a,b =   4.2336E+06 -4.8546E-01  3.4442E+01 -1.6137E-02 -1.5361E-02  2.3714E+02  0.0000E+00     2     3  1.3333E-01  8.6667E-01
time,fu0,fu1,fu =   4.2336E+06 -1.4435E-02 -2.7199E-02 -1.6137E-02  1.333333333333333E-01  8.666666666666667E-01
 cg2d: Sum(rhs),rhsMax =   3.16197762417758E-12  1.02123013095249E+01
(PID.TID 0000.0001)                    cg2d_init_res =    2.40170215273730E-01
(PID.TID 0000.0001)                       cg2d_iters =    24
(PID.TID 0000.0001)                         cg2d_res =    5.96218526665823E-14
(PID.TID 0000.0001) // =======================================================
(PID.TID 0000.0001) // Begin MONITOR dynamic field statistics
(PID.TID 0000.0001) // =======================================================
(PID.TID 0000.0001) %MON time_tsnumber                =                    99
(PID.TID 0000.0001) %MON time_secondsf                =   4.2768000000000E+06
(PID.TID 0000.0001) %MON dynstat_eta_max              =   1.2127540195809E+00
(PID.TID 0000.0001) %MON dynstat_eta_min              =  -1.5234067297381E+00
(PID.TID 0000.0001) %MON dynstat_eta_mean             =  -1.6508680910015E-15
(PID.TID 0000.0001) %MON dynstat_eta_sd               =   4.8369235988171E-01
(PID.TID 0000.0001) %MON dynstat_eta_del2             =   2.6757349081194E-02
(PID.TID 0000.0001) %MON dynstat_uvel_max             =   1.5017021478909E-01
(PID.TID 0000.0001) %MON dynstat_uvel_min             =  -1.2998475824941E-01
(PID.TID 0000.0001) %MON dynstat_uvel_mean            =   1.1474282372854E-03
(PID.TID 0000.0001) %MON dynstat_uvel_sd              =   1.3653725496596E-02
(PID.TID 0000.0001) %MON dynstat_uvel_del2            =   3.3061355522344E-03
(PID.TID 0000.0001) %MON dynstat_vvel_max             =   1.4988070526555E-01
(PID.TID 0000.0001) %MON dynstat_vvel_min             =  -1.3267499427767E-01
(PID.TID 0000.0001) %MON dynstat_vvel_mean            =   2.7393600073509E-04
(PID.TID 0000.0001) %MON dynstat_vvel_sd              =   1.4105513057013E-02
(PID.TID 0000.0001) %MON dynstat_vvel_del2            =   3.3866151309814E-03
(PID.TID 0000.0001) %MON dynstat_wvel_max             =   1.4651442708691E-04
(PID.TID 0000.0001) %MON dynstat_wvel_min             =  -1.8543025330170E-04
(PID.TID 0000.0001) %MON dynstat_wvel_mean            =  -2.0470916961786E-22
(PID.TID 0000.0001) %MON dynstat_wvel_sd              =   1.8730107728086E-05
(PID.TID 0000.0001) %MON dynstat_wvel_del2            =   6.1722488827874E-06
(PID.TID 0000.0001) %MON dynstat_theta_max            =   3.0314718006967E+01
(PID.TID 0000.0001) %MON dynstat_theta_min            =  -2.0123155376052E+00
(PID.TID 0000.0001) %MON dynstat_theta_mean           =   3.5875307549796E+00
(PID.TID 0000.0001) %MON dynstat_theta_sd             =   4.3388463498594E+00
(PID.TID 0000.0001) %MON dynstat_theta_del2           =   1.3981311008962E-01
(PID.TID 0000.0001) %MON dynstat_salt_max             =   3.7384047905993E+01
(PID.TID 0000.0001) %MON dynstat_salt_min             =   2.9889216785809E+01
(PID.TID 0000.0001) %MON dynstat_salt_mean            =   3.4715940988974E+01
(PID.TID 0000.0001) %MON dynstat_salt_sd              =   2.9546220000268E-01
(PID.TID 0000.0001) %MON dynstat_salt_del2            =   2.5325205645505E-02
(PID.TID 0000.0001) %MON dynstat_sst_max              =   3.0314718006967E+01
(PID.TID 0000.0001) %MON dynstat_sst_min              =  -1.9286746737355E+00
(PID.TID 0000.0001) %MON dynstat_sst_mean             =   1.8662378501292E+01
(PID.TID 0000.0001) %MON dynstat_sst_sd               =   8.9377648828700E+00
(PID.TID 0000.0001) %MON dynstat_sst_del2             =   2.6734763180200E-01
(PID.TID 0000.0001) %MON dynstat_sss_max              =   3.7384047044281E+01
(PID.TID 0000.0001) %MON dynstat_sss_min              =   2.9889216785809E+01
(PID.TID 0000.0001) %MON dynstat_sss_mean             =   3.4837648609642E+01
(PID.TID 0000.0001) %MON dynstat_sss_sd               =   9.5587651537518E-01
(PID.TID 0000.0001) %MON dynstat_sss_del2             =   7.8269800724093E-02
(PID.TID 0000.0001) %MON extforcing_qnet_max          =   3.4725963338216E+02
(PID.TID 0000.0001) %MON extforcing_qnet_min          =  -1.7163685201009E+02
(PID.TID 0000.0001) %MON extforcing_qnet_mean         =  -1.3071892980437E+01
(PID.TID 0000.0001) %MON extforcing_qnet_sd           =   7.3968055720569E+01
(PID.TID 0000.0001) %MON extforcing_qnet_del2         =   8.3327760735114E+00
(PID.TID 0000.0001) %MON extforcing_qsw_max           =   0.0000000000000E+00
(PID.TID 0000.0001) %MON extforcing_qsw_min           =   0.0000000000000E+00
(PID.TID 0000.0001) %MON extforcing_qsw_mean          =   0.0000000000000E+00
(PID.TID 0000.0001) %MON extforcing_qsw_sd            =   0.0000000000000E+00
(PID.TID 0000.0001) %MON extforcing_qsw_del2          =   0.0000000000000E+00
(PID.TID 0000.0001) %MON extforcing_empmr_max         =   0.0000000000000E+00
(PID.TID 0000.0001) %MON extforcing_empmr_min         =   0.0000000000000E+00
(PID.TID 0000.0001) %MON extforcing_empmr_mean        =   0.0000000000000E+00
(PID.TID 0000.0001) %MON extforcing_empmr_sd          =   0.0000000000000E+00
(PID.TID 0000.0001) %MON extforcing_empmr_del2        =   0.0000000000000E+00
(PID.TID 0000.0001) %MON extforcing_fu_max            =   3.0993293523788E-01
(PID.TID 0000.0001) %MON extforcing_fu_min            =  -2.3727086881797E-01
(PID.TID 0000.0001) %MON extforcing_fu_mean           =   1.8007539974469E-02
(PID.TID 0000.0001) %MON extforcing_fu_sd             =   9.3162159555480E-02
(PID.TID 0000.0001) %MON extforcing_fu_del2           =   7.9896741464526E-03
(PID.TID 0000.0001) %MON extforcing_fv_max            =   1.7883819590012E-01
(PID.TID 0000.0001) %MON extforcing_fv_min            =  -1.9373511075974E-01
(PID.TID 0000.0001) %MON extforcing_fv_mean           =  -7.2584383408382E-03
(PID.TID 0000.0001) %MON extforcing_fv_sd             =   4.3856575417137E-02
(PID.TID 0000.0001) %MON extforcing_fv_del2           =   4.8757362191931E-03
(PID.TID 0000.0001) %MON advcfl_uvel_max              =   2.6547839747419E-02
(PID.TID 0000.0001) %MON advcfl_vvel_max              =   1.4559708617792E-02
(PID.TID 0000.0001) %MON advcfl_wvel_max              =   4.6721075062226E-02
(PID.TID 0000.0001) %MON advcfl_W_hf_max              =   6.9455928026430E-02
(PID.TID 0000.0001) %MON pe_b_mean                    =   2.9937784323672E-04
(PID.TID 0000.0001) %MON ke_max                       =   1.3860545449107E-02
(PID.TID 0000.0001) %MON ke_mean                      =   1.7465151595783E-04
(PID.TID 0000.0001) %MON ke_vol                       =   1.3226782436723E+18
(PID.TID 0000.0001) %MON vort_r_min                   =  -4.7208840470055E-07
(PID.TID 0000.0001) %MON vort_r_max                   =   3.8861548866503E-07
(PID.TID 0000.0001) %MON vort_a_mean                  =  -2.5205769036806E-05
(PID.TID 0000.0001) %MON vort_a_sd                    =   7.3403496644836E-05
(PID.TID 0000.0001) %MON vort_p_mean                  =  -3.1758669108120E-05
(PID.TID 0000.0001) %MON vort_p_sd                    =   1.3126384741409E-04
(PID.TID 0000.0001) %MON surfExpan_theta_mean         =   1.3864061615911E-05
(PID.TID 0000.0001) %MON surfExpan_salt_mean          =   3.8584695321785E-07
(PID.TID 0000.0001) // =======================================================
(PID.TID 0000.0001) // End MONITOR dynamic field statistics
(PID.TID 0000.0001) // =======================================================
time,SST,SSS,fu,fv,Q,E-P,i0,i1,a,b =   4.2768E+06 -4.7966E-01  3.4445E+01 -1.6349E-02 -1.5077E-02  2.3672E+02  0.0000E+00     2     3  1.5000E-01  8.5000E-01
time,fu0,fu1,fu =   4.2768E+06 -1.4435E-02 -2.7199E-02 -1.6349E-02  1.500000000000000E-01  8.500000000000000E-01
 cg2d: Sum(rhs),rhsMax =   2.57759785737832E-12  1.02275375580449E+01
(PID.TID 0000.0001)                    cg2d_init_res =    2.34841536442387E-01
(PID.TID 0000.0001)                       cg2d_iters =    24
(PID.TID 0000.0001)                         cg2d_res =    5.81723353610296E-14
(PID.TID 0000.0001) // =======================================================
(PID.TID 0000.0001) // Begin MONITOR dynamic field statistics
(PID.TID 0000.0001) // =======================================================
(PID.TID 0000.0001) %MON time_tsnumber                =                   100
(PID.TID 0000.0001) %MON time_secondsf                =   4.3200000000000E+06
(PID.TID 0000.0001) %MON dynstat_eta_max              =   1.2146457396601E+00
(PID.TID 0000.0001) %MON dynstat_eta_min              =  -1.5316901331061E+00
(PID.TID 0000.0001) %MON dynstat_eta_mean             =  -1.9916065178346E-15
(PID.TID 0000.0001) %MON dynstat_eta_sd               =   4.8567848085469E-01
(PID.TID 0000.0001) %MON dynstat_eta_del2             =   2.6780491895425E-02
(PID.TID 0000.0001) %MON dynstat_uvel_max             =   1.5876038120441E-01
(PID.TID 0000.0001) %MON dynstat_uvel_min             =  -1.2977952792832E-01
(PID.TID 0000.0001) %MON dynstat_uvel_mean            =   1.1206705913132E-03
(PID.TID 0000.0001) %MON dynstat_uvel_sd              =   1.3823541464581E-02
(PID.TID 0000.0001) %MON dynstat_uvel_del2            =   3.3117134999662E-03
(PID.TID 0000.0001) %MON dynstat_vvel_max             =   1.4791782859177E-01
(PID.TID 0000.0001) %MON dynstat_vvel_min             =  -1.3182344318363E-01
(PID.TID 0000.0001) %MON dynstat_vvel_mean            =   3.6394126897987E-04
(PID.TID 0000.0001) %MON dynstat_vvel_sd              =   1.4077309377317E-02
(PID.TID 0000.0001) %MON dynstat_vvel_del2            =   3.3876545283477E-03
(PID.TID 0000.0001) %MON dynstat_wvel_max             =   1.4312069025513E-04
(PID.TID 0000.0001) %MON dynstat_wvel_min             =  -1.9096816226501E-04
(PID.TID 0000.0001) %MON dynstat_wvel_mean            =   2.0877832309312E-22
(PID.TID 0000.0001) %MON dynstat_wvel_sd              =   1.8642770547660E-05
(PID.TID 0000.0001) %MON dynstat_wvel_del2            =   6.1369861134480E-06
(PID.TID 0000.0001) %MON dynstat_theta_max            =   3.0320149198430E+01
(PID.TID 0000.0001) %MON dynstat_theta_min            =  -2.0110792193966E+00
(PID.TID 0000.0001) %MON dynstat_theta_mean           =   3.5874117195444E+00
(PID.TID 0000.0001) %MON dynstat_theta_sd             =   4.3385722710808E+00
(PID.TID 0000.0001) %MON dynstat_theta_del2           =   1.3978441201227E-01
(PID.TID 0000.0001) %MON dynstat_salt_max             =   3.7383643562111E+01
(PID.TID 0000.0001) %MON dynstat_salt_min             =   2.9889237116193E+01
(PID.TID 0000.0001) %MON dynstat_salt_mean            =   3.4715936998072E+01
(PID.TID 0000.0001) %MON dynstat_salt_sd              =   2.9545659760039E-01
(PID.TID 0000.0001) %MON dynstat_salt_del2            =   2.5301849110065E-02
(PID.TID 0000.0001) %MON dynstat_sst_max              =   3.0320149198430E+01
(PID.TID 0000.0001) %MON dynstat_sst_min              =  -1.9276716155189E+00
(PID.TID 0000.0001) %MON dynstat_sst_mean             =   1.8665015212921E+01
(PID.TID 0000.0001) %MON dynstat_sst_sd               =   8.9380159830128E+00
(PID.TID 0000.0001) %MON dynstat_sst_del2             =   2.6714830456979E-01
(PID.TID 0000.0001) %MON dynstat_sss_max              =   3.7383642722480E+01
(PID.TID 0000.0001) %MON dynstat_sss_min              =   2.9889237116193E+01
(PID.TID 0000.0001) %MON dynstat_sss_mean             =   3.4837596653179E+01
(PID.TID 0000.0001) %MON dynstat_sss_sd               =   9.5577246565958E-01
(PID.TID 0000.0001) %MON dynstat_sss_del2             =   7.8189720344849E-02
(PID.TID 0000.0001) %MON extforcing_qnet_max          =   3.4586055755615E+02
(PID.TID 0000.0001) %MON extforcing_qnet_min          =  -1.7148721237183E+02
(PID.TID 0000.0001) %MON extforcing_qnet_mean         =  -1.2960223230624E+01
(PID.TID 0000.0001) %MON extforcing_qnet_sd           =   7.3279033215459E+01
(PID.TID 0000.0001) %MON extforcing_qnet_del2         =   8.3041067446708E+00
(PID.TID 0000.0001) %MON extforcing_qsw_max           =   0.0000000000000E+00
(PID.TID 0000.0001) %MON extforcing_qsw_min           =   0.0000000000000E+00
(PID.TID 0000.0001) %MON extforcing_qsw_mean          =   0.0000000000000E+00
(PID.TID 0000.0001) %MON extforcing_qsw_sd            =   0.0000000000000E+00
(PID.TID 0000.0001) %MON extforcing_qsw_del2          =   0.0000000000000E+00
(PID.TID 0000.0001) %MON extforcing_empmr_max         =   0.0000000000000E+00
(PID.TID 0000.0001) %MON extforcing_empmr_min         =   0.0000000000000E+00
(PID.TID 0000.0001) %MON extforcing_empmr_mean        =   0.0000000000000E+00
(PID.TID 0000.0001) %MON extforcing_empmr_sd          =   0.0000000000000E+00
(PID.TID 0000.0001) %MON extforcing_empmr_del2        =   0.0000000000000E+00
(PID.TID 0000.0001) %MON extforcing_fu_max            =   3.1059511154890E-01
(PID.TID 0000.0001) %MON extforcing_fu_min            =  -2.3996318355203E-01
(PID.TID 0000.0001) %MON extforcing_fu_mean           =   1.8054639769199E-02
(PID.TID 0000.0001) %MON extforcing_fu_sd             =   9.3204968076817E-02
(PID.TID 0000.0001) %MON extforcing_fu_del2           =   7.9811861765890E-03
(PID.TID 0000.0001) %MON extforcing_fv_max            =   1.7599484976381E-01
(PID.TID 0000.0001) %MON extforcing_fv_min            =  -1.9299209266901E-01
(PID.TID 0000.0001) %MON extforcing_fv_mean           =  -7.2636525158229E-03
(PID.TID 0000.0001) %MON extforcing_fv_sd             =   4.3724322241012E-02
(PID.TID 0000.0001) %MON extforcing_fv_del2           =   4.8480875404861E-03
(PID.TID 0000.0001) %MON advcfl_uvel_max              =   2.6971701956475E-02
(PID.TID 0000.0001) %MON advcfl_vvel_max              =   1.4369030889312E-02
(PID.TID 0000.0001) %MON advcfl_wvel_max              =   4.7228591190949E-02
(PID.TID 0000.0001) %MON advcfl_W_hf_max              =   6.9327086189609E-02
(PID.TID 0000.0001) %MON pe_b_mean                    =   3.0184148098268E-04
(PID.TID 0000.0001) %MON ke_max                       =   1.3687331549665E-02
(PID.TID 0000.0001) %MON ke_mean                      =   1.7641274190269E-04
(PID.TID 0000.0001) %MON ke_vol                       =   1.3226782436723E+18
(PID.TID 0000.0001) %MON vort_r_min                   =  -4.7087827552862E-07
(PID.TID 0000.0001) %MON vort_r_max                   =   3.8970408295917E-07
(PID.TID 0000.0001) %MON vort_a_mean                  =  -2.5205769035426E-05
(PID.TID 0000.0001) %MON vort_a_sd                    =   7.3403485582695E-05
(PID.TID 0000.0001) %MON vort_p_mean                  =  -3.1758669106382E-05
(PID.TID 0000.0001) %MON vort_p_sd                    =   1.3126385100410E-04
(PID.TID 0000.0001) %MON surfExpan_theta_mean         =   1.3557175054204E-05
(PID.TID 0000.0001) %MON surfExpan_salt_mean          =   3.8773401761229E-07
(PID.TID 0000.0001) // =======================================================
(PID.TID 0000.0001) // End MONITOR dynamic field statistics
(PID.TID 0000.0001) // =======================================================
time,SST,SSS,fu,fv,Q,E-P,i0,i1,a,b =   4.3200E+06 -4.7386E-01  3.4447E+01 -1.6562E-02 -1.4793E-02  2.3630E+02  0.0000E+00     2     3  1.6667E-01  8.3333E-01
time,fu0,fu1,fu =   4.3200E+06 -1.4435E-02 -2.7199E-02 -1.6562E-02  1.666666666666667E-01  8.333333333333334E-01
 cg2d: Sum(rhs),rhsMax =   2.45393982911679E-12  1.01758680259234E+01
(PID.TID 0000.0001)                    cg2d_init_res =    2.33422535966792E-01
(PID.TID 0000.0001)                       cg2d_iters =    24
(PID.TID 0000.0001)                         cg2d_res =    5.69700085146264E-14
(PID.TID 0000.0001) // =======================================================
(PID.TID 0000.0001) // Begin MONITOR dynamic field statistics
(PID.TID 0000.0001) // =======================================================
(PID.TID 0000.0001) %MON time_tsnumber                =                   101
(PID.TID 0000.0001) %MON time_secondsf                =   4.3632000000000E+06
(PID.TID 0000.0001) %MON dynstat_eta_max              =   1.2087009518292E+00
(PID.TID 0000.0001) %MON dynstat_eta_min              =  -1.5388362873602E+00
(PID.TID 0000.0001) %MON dynstat_eta_mean             =  -1.6522831470734E-15
(PID.TID 0000.0001) %MON dynstat_eta_sd               =   4.8761992422899E-01
(PID.TID 0000.0001) %MON dynstat_eta_del2             =   2.6772860096233E-02
(PID.TID 0000.0001) %MON dynstat_uvel_max             =   1.6668415519617E-01
(PID.TID 0000.0001) %MON dynstat_uvel_min             =  -1.2956233879206E-01
(PID.TID 0000.0001) %MON dynstat_uvel_mean            =   1.1003329403152E-03
(PID.TID 0000.0001) %MON dynstat_uvel_sd              =   1.4011512267474E-02
(PID.TID 0000.0001) %MON dynstat_uvel_del2            =   3.3205818093736E-03
(PID.TID 0000.0001) %MON dynstat_vvel_max             =   1.4888666888374E-01
(PID.TID 0000.0001) %MON dynstat_vvel_min             =  -1.3018902206703E-01
(PID.TID 0000.0001) %MON dynstat_vvel_mean            =   4.5553730935111E-04
(PID.TID 0000.0001) %MON dynstat_vvel_sd              =   1.4045074824274E-02
(PID.TID 0000.0001) %MON dynstat_vvel_del2            =   3.3906658948859E-03
(PID.TID 0000.0001) %MON dynstat_wvel_max             =   1.4376818013604E-04
(PID.TID 0000.0001) %MON dynstat_wvel_min             =  -1.9617890179009E-04
(PID.TID 0000.0001) %MON dynstat_wvel_mean            =   1.4733962481375E-22
(PID.TID 0000.0001) %MON dynstat_wvel_sd              =   1.8549407935283E-05
(PID.TID 0000.0001) %MON dynstat_wvel_del2            =   6.1042836641164E-06
(PID.TID 0000.0001) %MON dynstat_theta_max            =   3.0310656590403E+01
(PID.TID 0000.0001) %MON dynstat_theta_min            =  -2.0098837532569E+00
(PID.TID 0000.0001) %MON dynstat_theta_mean           =   3.5872961495856E+00
(PID.TID 0000.0001) %MON dynstat_theta_sd             =   4.3383130145782E+00
(PID.TID 0000.0001) %MON dynstat_theta_del2           =   1.3976185783813E-01
(PID.TID 0000.0001) %MON dynstat_salt_max             =   3.7383268511670E+01
(PID.TID 0000.0001) %MON dynstat_salt_min             =   2.9889176323939E+01
(PID.TID 0000.0001) %MON dynstat_salt_mean            =   3.4715933046585E+01
(PID.TID 0000.0001) %MON dynstat_salt_sd              =   2.9544864175378E-01
(PID.TID 0000.0001) %MON dynstat_salt_del2            =   2.5281905095467E-02
(PID.TID 0000.0001) %MON dynstat_sst_max              =   3.0310656590403E+01
(PID.TID 0000.0001) %MON dynstat_sst_min              =  -1.9266213339838E+00
(PID.TID 0000.0001) %MON dynstat_sst_mean             =   1.8667878013890E+01
(PID.TID 0000.0001) %MON dynstat_sst_sd               =   8.9383522150986E+00
(PID.TID 0000.0001) %MON dynstat_sst_del2             =   2.6699861029758E-01
(PID.TID 0000.0001) %MON dynstat_sss_max              =   3.7383267689702E+01
(PID.TID 0000.0001) %MON dynstat_sss_min              =   2.9889176323939E+01
(PID.TID 0000.0001) %MON dynstat_sss_mean             =   3.4837578033264E+01
(PID.TID 0000.0001) %MON dynstat_sss_sd               =   9.5567784443764E-01
(PID.TID 0000.0001) %MON dynstat_sss_del2             =   7.8117547515017E-02
(PID.TID 0000.0001) %MON extforcing_qnet_max          =   3.4446148173014E+02
(PID.TID 0000.0001) %MON extforcing_qnet_min          =  -1.7133757273356E+02
(PID.TID 0000.0001) %MON extforcing_qnet_mean         =  -1.2848553480810E+01
(PID.TID 0000.0001) %MON extforcing_qnet_sd           =   7.2593681633689E+01
(PID.TID 0000.0001) %MON extforcing_qnet_del2         =   8.2765057144678E+00
(PID.TID 0000.0001) %MON extforcing_qsw_max           =   0.0000000000000E+00
(PID.TID 0000.0001) %MON extforcing_qsw_min           =   0.0000000000000E+00
(PID.TID 0000.0001) %MON extforcing_qsw_mean          =   0.0000000000000E+00
(PID.TID 0000.0001) %MON extforcing_qsw_sd            =   0.0000000000000E+00
(PID.TID 0000.0001) %MON extforcing_qsw_del2          =   0.0000000000000E+00
(PID.TID 0000.0001) %MON extforcing_empmr_max         =   0.0000000000000E+00
(PID.TID 0000.0001) %MON extforcing_empmr_min         =   0.0000000000000E+00
(PID.TID 0000.0001) %MON extforcing_empmr_mean        =   0.0000000000000E+00
(PID.TID 0000.0001) %MON extforcing_empmr_sd          =   0.0000000000000E+00
(PID.TID 0000.0001) %MON extforcing_empmr_del2        =   0.0000000000000E+00
(PID.TID 0000.0001) %MON extforcing_fu_max            =   3.1125728785992E-01
(PID.TID 0000.0001) %MON extforcing_fu_min            =  -2.4265549828609E-01
(PID.TID 0000.0001) %MON extforcing_fu_mean           =   1.8101739563928E-02
(PID.TID 0000.0001) %MON extforcing_fu_sd             =   9.3253165137727E-02
(PID.TID 0000.0001) %MON extforcing_fu_del2           =   7.9745313643150E-03
(PID.TID 0000.0001) %MON extforcing_fv_max            =   1.7315150362750E-01
(PID.TID 0000.0001) %MON extforcing_fv_min            =  -1.9224907457829E-01
(PID.TID 0000.0001) %MON extforcing_fv_mean           =  -7.2688666908077E-03
(PID.TID 0000.0001) %MON extforcing_fv_sd             =   4.3596000384561E-02
(PID.TID 0000.0001) %MON extforcing_fv_del2           =   4.8219283636153E-03
(PID.TID 0000.0001) %MON advcfl_uvel_max              =   2.7547525168300E-02
(PID.TID 0000.0001) %MON advcfl_vvel_max              =   1.4463145954512E-02
(PID.TID 0000.0001) %MON advcfl_wvel_max              =   5.1318664001415E-02
(PID.TID 0000.0001) %MON advcfl_W_hf_max              =   6.8558098929182E-02
(PID.TID 0000.0001) %MON pe_b_mean                    =   3.0425945672699E-04
(PID.TID 0000.0001) %MON ke_max                       =   1.3831685441628E-02
(PID.TID 0000.0001) %MON ke_mean                      =   1.7839600282455E-04
(PID.TID 0000.0001) %MON ke_vol                       =   1.3226782436723E+18
(PID.TID 0000.0001) %MON vort_r_min                   =  -4.6954067596549E-07
(PID.TID 0000.0001) %MON vort_r_max                   =   3.9073454334513E-07
(PID.TID 0000.0001) %MON vort_a_mean                  =  -2.5205769035670E-05
(PID.TID 0000.0001) %MON vort_a_sd                    =   7.3403475754377E-05
(PID.TID 0000.0001) %MON vort_p_mean                  =  -3.1758669106688E-05
(PID.TID 0000.0001) %MON vort_p_sd                    =   1.3126386265375E-04
(PID.TID 0000.0001) %MON surfExpan_theta_mean         =   1.3191578742676E-05
(PID.TID 0000.0001) %MON surfExpan_salt_mean          =   3.8070485419398E-07
(PID.TID 0000.0001) // =======================================================
(PID.TID 0000.0001) // End MONITOR dynamic field statistics
(PID.TID 0000.0001) // =======================================================
time,SST,SSS,fu,fv,Q,E-P,i0,i1,a,b =   4.3632E+06 -4.6807E-01  3.4450E+01 -1.6775E-02 -1.4508E-02  2.3588E+02  0.0000E+00     2     3  1.8333E-01  8.1667E-01
time,fu0,fu1,fu =   4.3632E+06 -1.4435E-02 -2.7199E-02 -1.6775E-02  1.833333333333333E-01  8.166666666666667E-01
 cg2d: Sum(rhs),rhsMax =   2.48499831823068E-12  1.00619947917649E+01
(PID.TID 0000.0001)                    cg2d_init_res =    2.35847037518073E-01
(PID.TID 0000.0001)                       cg2d_iters =    24
(PID.TID 0000.0001)                         cg2d_res =    5.53718324834853E-14
(PID.TID 0000.0001) // =======================================================
(PID.TID 0000.0001) // Begin MONITOR dynamic field statistics
(PID.TID 0000.0001) // =======================================================
(PID.TID 0000.0001) %MON time_tsnumber                =                   102
(PID.TID 0000.0001) %MON time_secondsf                =   4.4064000000000E+06
(PID.TID 0000.0001) %MON dynstat_eta_max              =   1.1954698953831E+00
(PID.TID 0000.0001) %MON dynstat_eta_min              =  -1.5448690056747E+00
(PID.TID 0000.0001) %MON dynstat_eta_mean             =  -1.5638067661779E-15
(PID.TID 0000.0001) %MON dynstat_eta_sd               =   4.8951400130573E-01
(PID.TID 0000.0001) %MON dynstat_eta_del2             =   2.6739067723700E-02
(PID.TID 0000.0001) %MON dynstat_uvel_max             =   1.7379888208002E-01
(PID.TID 0000.0001) %MON dynstat_uvel_min             =  -1.2933040900176E-01
(PID.TID 0000.0001) %MON dynstat_uvel_mean            =   1.0865224376861E-03
(PID.TID 0000.0001) %MON dynstat_uvel_sd              =   1.4211949100944E-02
(PID.TID 0000.0001) %MON dynstat_uvel_del2            =   3.3308034186410E-03
(PID.TID 0000.0001) %MON dynstat_vvel_max             =   1.5089464736259E-01
(PID.TID 0000.0001) %MON dynstat_vvel_min             =  -1.2779853326158E-01
(PID.TID 0000.0001) %MON dynstat_vvel_mean            =   5.4781507883796E-04
(PID.TID 0000.0001) %MON dynstat_vvel_sd              =   1.4009884285696E-02
(PID.TID 0000.0001) %MON dynstat_vvel_del2            =   3.3949620488169E-03
(PID.TID 0000.0001) %MON dynstat_wvel_max             =   1.4459646049059E-04
(PID.TID 0000.0001) %MON dynstat_wvel_min             =  -2.0098818034056E-04
(PID.TID 0000.0001) %MON dynstat_wvel_mean            =   1.9180141626530E-22
(PID.TID 0000.0001) %MON dynstat_wvel_sd              =   1.8454572416111E-05
(PID.TID 0000.0001) %MON dynstat_wvel_del2            =   6.0701829567785E-06
(PID.TID 0000.0001) %MON dynstat_theta_max            =   3.0286617263858E+01
(PID.TID 0000.0001) %MON dynstat_theta_min            =  -2.0087314516772E+00
(PID.TID 0000.0001) %MON dynstat_theta_mean           =   3.5871846275950E+00
(PID.TID 0000.0001) %MON dynstat_theta_sd             =   4.3380718905204E+00
(PID.TID 0000.0001) %MON dynstat_theta_del2           =   1.3973243573564E-01
(PID.TID 0000.0001) %MON dynstat_salt_max             =   3.7382925848969E+01
(PID.TID 0000.0001) %MON dynstat_salt_min             =   2.9889032044239E+01
(PID.TID 0000.0001) %MON dynstat_salt_mean            =   3.4715929233391E+01
(PID.TID 0000.0001) %MON dynstat_salt_sd              =   2.9543831124648E-01
(PID.TID 0000.0001) %MON dynstat_salt_del2            =   2.5260737824889E-02
(PID.TID 0000.0001) %MON dynstat_sst_max              =   3.0286617263858E+01
(PID.TID 0000.0001) %MON dynstat_sst_min              =  -1.9255539394552E+00
(PID.TID 0000.0001) %MON dynstat_sst_mean             =   1.8670832530793E+01
(PID.TID 0000.0001) %MON dynstat_sst_sd               =   8.9388499536789E+00
(PID.TID 0000.0001) %MON dynstat_sst_del2             =   2.6678274704804E-01
(PID.TID 0000.0001) %MON dynstat_sss_max              =   3.7382925041117E+01
(PID.TID 0000.0001) %MON dynstat_sss_min              =   2.9889032044239E+01
(PID.TID 0000.0001) %MON dynstat_sss_mean             =   3.4837562605895E+01
(PID.TID 0000.0001) %MON dynstat_sss_sd               =   9.5557307839378E-01
(PID.TID 0000.0001) %MON dynstat_sss_del2             =   7.8034950214788E-02
(PID.TID 0000.0001) %MON extforcing_qnet_max          =   3.4306240590413E+02
(PID.TID 0000.0001) %MON extforcing_qnet_min          =  -1.7118793309530E+02
(PID.TID 0000.0001) %MON extforcing_qnet_mean         =  -1.2736883730997E+01
(PID.TID 0000.0001) %MON extforcing_qnet_sd           =   7.1912105931505E+01
(PID.TID 0000.0001) %MON extforcing_qnet_del2         =   8.2495532830843E+00
(PID.TID 0000.0001) %MON extforcing_qsw_max           =   0.0000000000000E+00
(PID.TID 0000.0001) %MON extforcing_qsw_min           =   0.0000000000000E+00
(PID.TID 0000.0001) %MON extforcing_qsw_mean          =   0.0000000000000E+00
(PID.TID 0000.0001) %MON extforcing_qsw_sd            =   0.0000000000000E+00
(PID.TID 0000.0001) %MON extforcing_qsw_del2          =   0.0000000000000E+00
(PID.TID 0000.0001) %MON extforcing_empmr_max         =   0.0000000000000E+00
(PID.TID 0000.0001) %MON extforcing_empmr_min         =   0.0000000000000E+00
(PID.TID 0000.0001) %MON extforcing_empmr_mean        =   0.0000000000000E+00
(PID.TID 0000.0001) %MON extforcing_empmr_sd          =   0.0000000000000E+00
(PID.TID 0000.0001) %MON extforcing_empmr_del2        =   0.0000000000000E+00
(PID.TID 0000.0001) %MON extforcing_fu_max            =   3.1191946417093E-01
(PID.TID 0000.0001) %MON extforcing_fu_min            =  -2.4534781302015E-01
(PID.TID 0000.0001) %MON extforcing_fu_mean           =   1.8148839358657E-02
(PID.TID 0000.0001) %MON extforcing_fu_sd             =   9.3306742387951E-02
(PID.TID 0000.0001) %MON extforcing_fu_del2           =   7.9702519182151E-03
(PID.TID 0000.0001) %MON extforcing_fv_max            =   1.7030815749119E-01
(PID.TID 0000.0001) %MON extforcing_fv_min            =  -1.9150605648756E-01
(PID.TID 0000.0001) %MON extforcing_fv_mean           =  -7.2740808657924E-03
(PID.TID 0000.0001) %MON extforcing_fv_sd             =   4.3471644661816E-02
(PID.TID 0000.0001) %MON extforcing_fv_del2           =   4.7968300932690E-03
(PID.TID 0000.0001) %MON advcfl_uvel_max              =   2.8723360493906E-02
(PID.TID 0000.0001) %MON advcfl_vvel_max              =   1.4658204961680E-02
(PID.TID 0000.0001) %MON advcfl_wvel_max              =   5.6481830856733E-02
(PID.TID 0000.0001) %MON advcfl_W_hf_max              =   6.7148108040283E-02
(PID.TID 0000.0001) %MON pe_b_mean                    =   3.0662773614234E-04
(PID.TID 0000.0001) %MON ke_max                       =   1.5072301665608E-02
(PID.TID 0000.0001) %MON ke_mean                      =   1.8055069015936E-04
(PID.TID 0000.0001) %MON ke_vol                       =   1.3226782436723E+18
(PID.TID 0000.0001) %MON vort_r_min                   =  -4.6818468691312E-07
(PID.TID 0000.0001) %MON vort_r_max                   =   3.9172267650045E-07
(PID.TID 0000.0001) %MON vort_a_mean                  =  -2.5205769037484E-05
(PID.TID 0000.0001) %MON vort_a_sd                    =   7.3403467252476E-05
(PID.TID 0000.0001) %MON vort_p_mean                  =  -3.1758669108975E-05
(PID.TID 0000.0001) %MON vort_p_sd                    =   1.3126388149587E-04
(PID.TID 0000.0001) %MON surfExpan_theta_mean         =   1.2773162876892E-05
(PID.TID 0000.0001) %MON surfExpan_salt_mean          =   3.6487749388130E-07
(PID.TID 0000.0001) // =======================================================
(PID.TID 0000.0001) // End MONITOR dynamic field statistics
(PID.TID 0000.0001) // =======================================================
time,SST,SSS,fu,fv,Q,E-P,i0,i1,a,b =   4.4064E+06 -4.6227E-01  3.4453E+01 -1.6988E-02 -1.4224E-02  2.3546E+02  0.0000E+00     2     3  2.0000E-01  8.0000E-01
time,fu0,fu1,fu =   4.4064E+06 -1.4435E-02 -2.7199E-02 -1.6988E-02  2.000000000000000E-01  8.000000000000000E-01
 cg2d: Sum(rhs),rhsMax =   2.77632777878623E-12  9.89195713846401E+00
(PID.TID 0000.0001)                    cg2d_init_res =    2.41884366981073E-01
(PID.TID 0000.0001)                       cg2d_iters =    23
(PID.TID 0000.0001)                         cg2d_res =    7.73511120929974E-14
(PID.TID 0000.0001) // =======================================================
(PID.TID 0000.0001) // Begin MONITOR dynamic field statistics
(PID.TID 0000.0001) // =======================================================
(PID.TID 0000.0001) %MON time_tsnumber                =                   103
(PID.TID 0000.0001) %MON time_secondsf                =   4.4496000000000E+06
(PID.TID 0000.0001) %MON dynstat_eta_max              =   1.1756593855824E+00
(PID.TID 0000.0001) %MON dynstat_eta_min              =  -1.5498586702913E+00
(PID.TID 0000.0001) %MON dynstat_eta_mean             =  -1.9109695475774E-15
(PID.TID 0000.0001) %MON dynstat_eta_sd               =   4.9136136544270E-01
(PID.TID 0000.0001) %MON dynstat_eta_del2             =   2.6691013437213E-02
(PID.TID 0000.0001) %MON dynstat_uvel_max             =   1.7997741863041E-01
(PID.TID 0000.0001) %MON dynstat_uvel_min             =  -1.2908093615404E-01
(PID.TID 0000.0001) %MON dynstat_uvel_mean            =   1.0791410642264E-03
(PID.TID 0000.0001) %MON dynstat_uvel_sd              =   1.4419014073316E-02
(PID.TID 0000.0001) %MON dynstat_uvel_del2            =   3.3431557102229E-03
(PID.TID 0000.0001) %MON dynstat_vvel_max             =   1.5280441778434E-01
(PID.TID 0000.0001) %MON dynstat_vvel_min             =  -1.2698303924138E-01
(PID.TID 0000.0001) %MON dynstat_vvel_mean            =   6.3980563828001E-04
(PID.TID 0000.0001) %MON dynstat_vvel_sd              =   1.3972906802187E-02
(PID.TID 0000.0001) %MON dynstat_vvel_del2            =   3.3971861378827E-03
(PID.TID 0000.0001) %MON dynstat_wvel_max             =   1.4557615381858E-04
(PID.TID 0000.0001) %MON dynstat_wvel_min             =  -2.0531952891198E-04
(PID.TID 0000.0001) %MON dynstat_wvel_mean            =   2.9716503864498E-22
(PID.TID 0000.0001) %MON dynstat_wvel_sd              =   1.8362266112381E-05
(PID.TID 0000.0001) %MON dynstat_wvel_del2            =   6.0383999423776E-06
(PID.TID 0000.0001) %MON dynstat_theta_max            =   3.0248682412924E+01
(PID.TID 0000.0001) %MON dynstat_theta_min            =  -2.0076224578673E+00
(PID.TID 0000.0001) %MON dynstat_theta_mean           =   3.5870777079113E+00
(PID.TID 0000.0001) %MON dynstat_theta_sd             =   4.3378519027066E+00
(PID.TID 0000.0001) %MON dynstat_theta_del2           =   1.3970759787696E-01
(PID.TID 0000.0001) %MON dynstat_salt_max             =   3.7382617279989E+01
(PID.TID 0000.0001) %MON dynstat_salt_min             =   2.9888805505093E+01
(PID.TID 0000.0001) %MON dynstat_salt_mean            =   3.4715925657388E+01
(PID.TID 0000.0001) %MON dynstat_salt_sd              =   2.9542556615924E-01
(PID.TID 0000.0001) %MON dynstat_salt_del2            =   2.5239845987045E-02
(PID.TID 0000.0001) %MON dynstat_sst_max              =   3.0248682412924E+01
(PID.TID 0000.0001) %MON dynstat_sst_min              =  -1.9244982076008E+00
(PID.TID 0000.0001) %MON dynstat_sst_mean             =   1.8673865309614E+01
(PID.TID 0000.0001) %MON dynstat_sst_sd               =   8.9395507715452E+00
(PID.TID 0000.0001) %MON dynstat_sst_del2             =   2.6660623205717E-01
(PID.TID 0000.0001) %MON dynstat_sss_max              =   3.7382616483658E+01
(PID.TID 0000.0001) %MON dynstat_sss_min              =   2.9888805505093E+01
(PID.TID 0000.0001) %MON dynstat_sss_mean             =   3.4837550649857E+01
(PID.TID 0000.0001) %MON dynstat_sss_sd               =   9.5545545369521E-01
(PID.TID 0000.0001) %MON dynstat_sss_del2             =   7.7955905561831E-02
(PID.TID 0000.0001) %MON extforcing_qnet_max          =   3.4166333007812E+02
(PID.TID 0000.0001) %MON extforcing_qnet_min          =  -1.7103829345703E+02
(PID.TID 0000.0001) %MON extforcing_qnet_mean         =  -1.2625213981184E+01
(PID.TID 0000.0001) %MON extforcing_qnet_sd           =   7.1234414492605E+01
(PID.TID 0000.0001) %MON extforcing_qnet_del2         =   8.2232187328078E+00
(PID.TID 0000.0001) %MON extforcing_qsw_max           =   0.0000000000000E+00
(PID.TID 0000.0001) %MON extforcing_qsw_min           =   0.0000000000000E+00
(PID.TID 0000.0001) %MON extforcing_qsw_mean          =   0.0000000000000E+00
(PID.TID 0000.0001) %MON extforcing_qsw_sd            =   0.0000000000000E+00
(PID.TID 0000.0001) %MON extforcing_qsw_del2          =   0.0000000000000E+00
(PID.TID 0000.0001) %MON extforcing_empmr_max         =   0.0000000000000E+00
(PID.TID 0000.0001) %MON extforcing_empmr_min         =   0.0000000000000E+00
(PID.TID 0000.0001) %MON extforcing_empmr_mean        =   0.0000000000000E+00
(PID.TID 0000.0001) %MON extforcing_empmr_sd          =   0.0000000000000E+00
(PID.TID 0000.0001) %MON extforcing_empmr_del2        =   0.0000000000000E+00
(PID.TID 0000.0001) %MON extforcing_fu_max            =   3.1258164048195E-01
(PID.TID 0000.0001) %MON extforcing_fu_min            =  -2.4804012775421E-01
(PID.TID 0000.0001) %MON extforcing_fu_mean           =   1.8195939153386E-02
(PID.TID 0000.0001) %MON extforcing_fu_sd             =   9.3365690565339E-02
(PID.TID 0000.0001) %MON extforcing_fu_del2           =   7.9678528313309E-03
(PID.TID 0000.0001) %MON extforcing_fv_max            =   1.6746481135488E-01
(PID.TID 0000.0001) %MON extforcing_fv_min            =  -1.9076303839684E-01
(PID.TID 0000.0001) %MON extforcing_fv_mean           =  -7.2792950407772E-03
(PID.TID 0000.0001) %MON extforcing_fv_sd             =   4.3351289204055E-02
(PID.TID 0000.0001) %MON extforcing_fv_del2           =   4.7723209916627E-03
(PID.TID 0000.0001) %MON advcfl_uvel_max              =   2.9744473694047E-02
(PID.TID 0000.0001) %MON advcfl_vvel_max              =   1.4843723843636E-02
(PID.TID 0000.0001) %MON advcfl_wvel_max              =   5.9804998301768E-02
(PID.TID 0000.0001) %MON advcfl_W_hf_max              =   6.5109693007338E-02
(PID.TID 0000.0001) %MON pe_b_mean                    =   3.0894645202342E-04
(PID.TID 0000.0001) %MON ke_max                       =   1.6233653158674E-02
(PID.TID 0000.0001) %MON ke_mean                      =   1.8282133108686E-04
(PID.TID 0000.0001) %MON ke_vol                       =   1.3226782436723E+18
(PID.TID 0000.0001) %MON vort_r_min                   =  -4.6692011395105E-07
(PID.TID 0000.0001) %MON vort_r_max                   =   3.9268526167171E-07
(PID.TID 0000.0001) %MON vort_a_mean                  =  -2.5205769040755E-05
(PID.TID 0000.0001) %MON vort_a_sd                    =   7.3403460126371E-05
(PID.TID 0000.0001) %MON vort_p_mean                  =  -3.1758669113095E-05
(PID.TID 0000.0001) %MON vort_p_sd                    =   1.3126390642641E-04
(PID.TID 0000.0001) %MON surfExpan_theta_mean         =   1.2309127998313E-05
(PID.TID 0000.0001) %MON surfExpan_salt_mean          =   3.4089869809631E-07
(PID.TID 0000.0001) // =======================================================
(PID.TID 0000.0001) // End MONITOR dynamic field statistics
(PID.TID 0000.0001) // =======================================================
time,SST,SSS,fu,fv,Q,E-P,i0,i1,a,b =   4.4496E+06 -4.5647E-01  3.4455E+01 -1.7200E-02 -1.3940E-02  2.3505E+02  0.0000E+00     2     3  2.1667E-01  7.8333E-01
time,fu0,fu1,fu =   4.4496E+06 -1.4435E-02 -2.7199E-02 -1.7200E-02  2.166666666666667E-01  7.833333333333333E-01
 cg2d: Sum(rhs),rhsMax =   2.73103067938152E-12  9.67292361771451E+00
(PID.TID 0000.0001)                    cg2d_init_res =    2.51132655392744E-01
(PID.TID 0000.0001)                       cg2d_iters =    24
(PID.TID 0000.0001)                         cg2d_res =    3.44577540659258E-14
(PID.TID 0000.0001) // =======================================================
(PID.TID 0000.0001) // Begin MONITOR dynamic field statistics
(PID.TID 0000.0001) // =======================================================
(PID.TID 0000.0001) %MON time_tsnumber                =                   104
(PID.TID 0000.0001) %MON time_secondsf                =   4.4928000000000E+06
(PID.TID 0000.0001) %MON dynstat_eta_max              =   1.1501083363808E+00
(PID.TID 0000.0001) %MON dynstat_eta_min              =  -1.5539119937798E+00
(PID.TID 0000.0001) %MON dynstat_eta_mean             =  -1.4961953870625E-15
(PID.TID 0000.0001) %MON dynstat_eta_sd               =   4.9316541670891E-01
(PID.TID 0000.0001) %MON dynstat_eta_del2             =   2.6643365725640E-02
(PID.TID 0000.0001) %MON dynstat_uvel_max             =   1.8554928802509E-01
(PID.TID 0000.0001) %MON dynstat_uvel_min             =  -1.2881127516930E-01
(PID.TID 0000.0001) %MON dynstat_uvel_mean            =   1.0778988849514E-03
(PID.TID 0000.0001) %MON dynstat_uvel_sd              =   1.4627028696904E-02
(PID.TID 0000.0001) %MON dynstat_uvel_del2            =   3.3560458101105E-03
(PID.TID 0000.0001) %MON dynstat_vvel_max             =   1.5460727652694E-01
(PID.TID 0000.0001) %MON dynstat_vvel_min             =  -1.2843474729444E-01
(PID.TID 0000.0001) %MON dynstat_vvel_mean            =   7.3052147480864E-04
(PID.TID 0000.0001) %MON dynstat_vvel_sd              =   1.3935275098805E-02
(PID.TID 0000.0001) %MON dynstat_vvel_del2            =   3.3959875227786E-03
(PID.TID 0000.0001) %MON dynstat_wvel_max             =   1.4667708155114E-04
(PID.TID 0000.0001) %MON dynstat_wvel_min             =  -2.0909743952933E-04
(PID.TID 0000.0001) %MON dynstat_wvel_mean            =   1.0925085738532E-21
(PID.TID 0000.0001) %MON dynstat_wvel_sd              =   1.8275614667296E-05
(PID.TID 0000.0001) %MON dynstat_wvel_del2            =   6.0053645907245E-06
(PID.TID 0000.0001) %MON dynstat_theta_max            =   3.0197767978590E+01
(PID.TID 0000.0001) %MON dynstat_theta_min            =  -2.0065552739107E+00
(PID.TID 0000.0001) %MON dynstat_theta_mean           =   3.5869758487912E+00
(PID.TID 0000.0001) %MON dynstat_theta_sd             =   4.3376555962584E+00
(PID.TID 0000.0001) %MON dynstat_theta_del2           =   1.3968518470990E-01
(PID.TID 0000.0001) %MON dynstat_salt_max             =   3.7382343069812E+01
(PID.TID 0000.0001) %MON dynstat_salt_min             =   2.9888501580716E+01
(PID.TID 0000.0001) %MON dynstat_salt_mean            =   3.4715922405939E+01
(PID.TID 0000.0001) %MON dynstat_salt_sd              =   2.9541043984626E-01
(PID.TID 0000.0001) %MON dynstat_salt_del2            =   2.5219308742061E-02
(PID.TID 0000.0001) %MON dynstat_sst_max              =   3.0197767978590E+01
(PID.TID 0000.0001) %MON dynstat_sst_min              =  -1.9234805196414E+00
(PID.TID 0000.0001) %MON dynstat_sst_mean             =   1.8677011414139E+01
(PID.TID 0000.0001) %MON dynstat_sst_sd               =   8.9404365276815E+00
(PID.TID 0000.0001) %MON dynstat_sst_del2             =   2.6644984432825E-01
(PID.TID 0000.0001) %MON dynstat_sss_max              =   3.7382342283387E+01
(PID.TID 0000.0001) %MON dynstat_sss_min              =   2.9888501580716E+01
(PID.TID 0000.0001) %MON dynstat_sss_mean             =   3.4837553738741E+01
(PID.TID 0000.0001) %MON dynstat_sss_sd               =   9.5533323191204E-01
(PID.TID 0000.0001) %MON dynstat_sss_del2             =   7.7880403097401E-02
(PID.TID 0000.0001) %MON extforcing_qnet_max          =   3.4026425425212E+02
(PID.TID 0000.0001) %MON extforcing_qnet_min          =  -1.7088865381877E+02
(PID.TID 0000.0001) %MON extforcing_qnet_mean         =  -1.2513544231370E+01
(PID.TID 0000.0001) %MON extforcing_qnet_sd           =   7.0560719234813E+01
(PID.TID 0000.0001) %MON extforcing_qnet_del2         =   8.1972664732279E+00
(PID.TID 0000.0001) %MON extforcing_qsw_max           =   0.0000000000000E+00
(PID.TID 0000.0001) %MON extforcing_qsw_min           =   0.0000000000000E+00
(PID.TID 0000.0001) %MON extforcing_qsw_mean          =   0.0000000000000E+00
(PID.TID 0000.0001) %MON extforcing_qsw_sd            =   0.0000000000000E+00
(PID.TID 0000.0001) %MON extforcing_qsw_del2          =   0.0000000000000E+00
(PID.TID 0000.0001) %MON extforcing_empmr_max         =   0.0000000000000E+00
(PID.TID 0000.0001) %MON extforcing_empmr_min         =   0.0000000000000E+00
(PID.TID 0000.0001) %MON extforcing_empmr_mean        =   0.0000000000000E+00
(PID.TID 0000.0001) %MON extforcing_empmr_sd          =   0.0000000000000E+00
(PID.TID 0000.0001) %MON extforcing_empmr_del2        =   0.0000000000000E+00
(PID.TID 0000.0001) %MON extforcing_fu_max            =   3.1324381679296E-01
(PID.TID 0000.0001) %MON extforcing_fu_min            =  -2.5073244248827E-01
(PID.TID 0000.0001) %MON extforcing_fu_mean           =   1.8243038948115E-02
(PID.TID 0000.0001) %MON extforcing_fu_sd             =   9.3429999503786E-02
(PID.TID 0000.0001) %MON extforcing_fu_del2           =   7.9671767739449E-03
(PID.TID 0000.0001) %MON extforcing_fv_max            =   1.6462146521856E-01
(PID.TID 0000.0001) %MON extforcing_fv_min            =  -1.9002002030611E-01
(PID.TID 0000.0001) %MON extforcing_fv_mean           =  -7.2845092157619E-03
(PID.TID 0000.0001) %MON extforcing_fv_sd             =   4.3234967418536E-02
(PID.TID 0000.0001) %MON extforcing_fv_del2           =   4.7493930298001E-03
(PID.TID 0000.0001) %MON advcfl_uvel_max              =   3.0665324342412E-02
(PID.TID 0000.0001) %MON advcfl_vvel_max              =   1.5018857113290E-02
(PID.TID 0000.0001) %MON advcfl_wvel_max              =   6.3157499722008E-02
(PID.TID 0000.0001) %MON advcfl_W_hf_max              =   6.2420889946615E-02
(PID.TID 0000.0001) %MON pe_b_mean                    =   3.1121923312640E-04
(PID.TID 0000.0001) %MON ke_max                       =   1.7295017060710E-02
(PID.TID 0000.0001) %MON ke_mean                      =   1.8514939955127E-04
(PID.TID 0000.0001) %MON ke_vol                       =   1.3226782436723E+18
(PID.TID 0000.0001) %MON vort_r_min                   =  -4.6585409577372E-07
(PID.TID 0000.0001) %MON vort_r_max                   =   3.9363955792491E-07
(PID.TID 0000.0001) %MON vort_a_mean                  =  -2.5205769045311E-05
(PID.TID 0000.0001) %MON vort_a_sd                    =   7.3403454383338E-05
(PID.TID 0000.0001) %MON vort_p_mean                  =  -3.1758669118836E-05
(PID.TID 0000.0001) %MON vort_p_sd                    =   1.3126393610381E-04
(PID.TID 0000.0001) %MON surfExpan_theta_mean         =   1.1804850302231E-05
(PID.TID 0000.0001) %MON surfExpan_salt_mean          =   3.0924300292980E-07
(PID.TID 0000.0001) // =======================================================
(PID.TID 0000.0001) // End MONITOR dynamic field statistics
(PID.TID 0000.0001) // =======================================================
time,SST,SSS,fu,fv,Q,E-P,i0,i1,a,b =   4.4928E+06 -4.5067E-01  3.4458E+01 -1.7413E-02 -1.3655E-02  2.3463E+02  0.0000E+00     2     3  2.3333E-01  7.6667E-01
time,fu0,fu1,fu =   4.4928E+06 -1.4435E-02 -2.7199E-02 -1.7413E-02  2.333333333333333E-01  7.666666666666666E-01
 cg2d: Sum(rhs),rhsMax =   2.60642896154906E-12  9.41296214456248E+00
(PID.TID 0000.0001)                    cg2d_init_res =    2.63049968076913E-01
(PID.TID 0000.0001)                       cg2d_iters =    24
(PID.TID 0000.0001)                         cg2d_res =    5.70453907956531E-14
(PID.TID 0000.0001) // =======================================================
(PID.TID 0000.0001) // Begin MONITOR dynamic field statistics
(PID.TID 0000.0001) // =======================================================
(PID.TID 0000.0001) %MON time_tsnumber                =                   105
(PID.TID 0000.0001) %MON time_secondsf                =   4.5360000000000E+06
(PID.TID 0000.0001) %MON dynstat_eta_max              =   1.1197607334878E+00
(PID.TID 0000.0001) %MON dynstat_eta_min              =  -1.5571590084305E+00
(PID.TID 0000.0001) %MON dynstat_eta_mean             =  -1.4592765741467E-15
(PID.TID 0000.0001) %MON dynstat_eta_sd               =   4.9493151341597E-01
(PID.TID 0000.0001) %MON dynstat_eta_del2             =   2.6566824328428E-02
(PID.TID 0000.0001) %MON dynstat_uvel_max             =   1.9182550328904E-01
(PID.TID 0000.0001) %MON dynstat_uvel_min             =  -1.2865533941588E-01
(PID.TID 0000.0001) %MON dynstat_uvel_mean            =   1.0823315004700E-03
(PID.TID 0000.0001) %MON dynstat_uvel_sd              =   1.4830741502878E-02
(PID.TID 0000.0001) %MON dynstat_uvel_del2            =   3.3687999740198E-03
(PID.TID 0000.0001) %MON dynstat_vvel_max             =   1.5629446995498E-01
(PID.TID 0000.0001) %MON dynstat_vvel_min             =  -1.3014758468755E-01
(PID.TID 0000.0001) %MON dynstat_vvel_mean            =   8.1899159328799E-04
(PID.TID 0000.0001) %MON dynstat_vvel_sd              =   1.3897965304369E-02
(PID.TID 0000.0001) %MON dynstat_vvel_del2            =   3.3924285987454E-03
(PID.TID 0000.0001) %MON dynstat_wvel_max             =   1.4786838871456E-04
(PID.TID 0000.0001) %MON dynstat_wvel_min             =  -2.1225057615849E-04
(PID.TID 0000.0001) %MON dynstat_wvel_mean            =   4.5839440382223E-22
(PID.TID 0000.0001) %MON dynstat_wvel_sd              =   1.8196774956191E-05
(PID.TID 0000.0001) %MON dynstat_wvel_del2            =   5.9688598784654E-06
(PID.TID 0000.0001) %MON dynstat_theta_max            =   3.0135042161251E+01
(PID.TID 0000.0001) %MON dynstat_theta_min            =  -2.0055264734572E+00
(PID.TID 0000.0001) %MON dynstat_theta_mean           =   3.5868794592906E+00
(PID.TID 0000.0001) %MON dynstat_theta_sd             =   4.3374850326577E+00
(PID.TID 0000.0001) %MON dynstat_theta_del2           =   1.3966298218977E-01
(PID.TID 0000.0001) %MON dynstat_salt_max             =   3.7382101996411E+01
(PID.TID 0000.0001) %MON dynstat_salt_min             =   2.9888128637069E+01
(PID.TID 0000.0001) %MON dynstat_salt_mean            =   3.4715919561556E+01
(PID.TID 0000.0001) %MON dynstat_salt_sd              =   2.9539301112888E-01
(PID.TID 0000.0001) %MON dynstat_salt_del2            =   2.5199881058609E-02
(PID.TID 0000.0001) %MON dynstat_sst_max              =   3.0135042161251E+01
(PID.TID 0000.0001) %MON dynstat_sst_min              =  -1.9225239525279E+00
(PID.TID 0000.0001) %MON dynstat_sst_mean             =   1.8680227609538E+01
(PID.TID 0000.0001) %MON dynstat_sst_sd               =   8.9415356355345E+00
(PID.TID 0000.0001) %MON dynstat_sst_del2             =   2.6627071506990E-01
(PID.TID 0000.0001) %MON dynstat_sss_max              =   3.7382101219232E+01
(PID.TID 0000.0001) %MON dynstat_sss_min              =   2.9888128637069E+01
(PID.TID 0000.0001) %MON dynstat_sss_mean             =   3.4837563200463E+01
(PID.TID 0000.0001) %MON dynstat_sss_sd               =   9.5519271840497E-01
(PID.TID 0000.0001) %MON dynstat_sss_del2             =   7.7806944704305E-02
(PID.TID 0000.0001) %MON extforcing_qnet_max          =   3.3886517842611E+02
(PID.TID 0000.0001) %MON extforcing_qnet_min          =  -1.7073901418050E+02
(PID.TID 0000.0001) %MON extforcing_qnet_mean         =  -1.2401874481557E+01
(PID.TID 0000.0001) %MON extforcing_qnet_sd           =   6.9891135718298E+01
(PID.TID 0000.0001) %MON extforcing_qnet_del2         =   8.1721466500659E+00
(PID.TID 0000.0001) %MON extforcing_qsw_max           =   0.0000000000000E+00
(PID.TID 0000.0001) %MON extforcing_qsw_min           =   0.0000000000000E+00
(PID.TID 0000.0001) %MON extforcing_qsw_mean          =   0.0000000000000E+00
(PID.TID 0000.0001) %MON extforcing_qsw_sd            =   0.0000000000000E+00
(PID.TID 0000.0001) %MON extforcing_qsw_del2          =   0.0000000000000E+00
(PID.TID 0000.0001) %MON extforcing_empmr_max         =   0.0000000000000E+00
(PID.TID 0000.0001) %MON extforcing_empmr_min         =   0.0000000000000E+00
(PID.TID 0000.0001) %MON extforcing_empmr_mean        =   0.0000000000000E+00
(PID.TID 0000.0001) %MON extforcing_empmr_sd          =   0.0000000000000E+00
(PID.TID 0000.0001) %MON extforcing_empmr_del2        =   0.0000000000000E+00
(PID.TID 0000.0001) %MON extforcing_fu_max            =   3.1390599310398E-01
(PID.TID 0000.0001) %MON extforcing_fu_min            =  -2.5342475722233E-01
(PID.TID 0000.0001) %MON extforcing_fu_mean           =   1.8290138742845E-02
(PID.TID 0000.0001) %MON extforcing_fu_sd             =   9.3499658141920E-02
(PID.TID 0000.0001) %MON extforcing_fu_del2           =   7.9684755729262E-03
(PID.TID 0000.0001) %MON extforcing_fv_max            =   1.6197121615211E-01
(PID.TID 0000.0001) %MON extforcing_fv_min            =  -1.8927700221539E-01
(PID.TID 0000.0001) %MON extforcing_fv_mean           =  -7.2897233907466E-03
(PID.TID 0000.0001) %MON extforcing_fv_sd             =   4.3122711947279E-02
(PID.TID 0000.0001) %MON extforcing_fv_del2           =   4.7288382194614E-03
(PID.TID 0000.0001) %MON advcfl_uvel_max              =   3.1702580689553E-02
(PID.TID 0000.0001) %MON advcfl_vvel_max              =   1.5182754425160E-02
(PID.TID 0000.0001) %MON advcfl_wvel_max              =   7.0376665365252E-02
(PID.TID 0000.0001) %MON advcfl_W_hf_max              =   7.2338315927609E-02
(PID.TID 0000.0001) %MON pe_b_mean                    =   3.1345226658805E-04
(PID.TID 0000.0001) %MON ke_max                       =   1.8238539404558E-02
(PID.TID 0000.0001) %MON ke_mean                      =   1.8747539776554E-04
(PID.TID 0000.0001) %MON ke_vol                       =   1.3226782436723E+18
(PID.TID 0000.0001) %MON vort_r_min                   =  -4.6508786173297E-07
(PID.TID 0000.0001) %MON vort_r_max                   =   3.9460279253153E-07
(PID.TID 0000.0001) %MON vort_a_mean                  =  -2.5205769050925E-05
(PID.TID 0000.0001) %MON vort_a_sd                    =   7.3403449990534E-05
(PID.TID 0000.0001) %MON vort_p_mean                  =  -3.1758669125910E-05
(PID.TID 0000.0001) %MON vort_p_sd                    =   1.3126396900422E-04
(PID.TID 0000.0001) %MON surfExpan_theta_mean         =   1.1266382000307E-05
(PID.TID 0000.0001) %MON surfExpan_salt_mean          =   2.7069810776470E-07
(PID.TID 0000.0001) // =======================================================
(PID.TID 0000.0001) // End MONITOR dynamic field statistics
(PID.TID 0000.0001) // =======================================================
time,SST,SSS,fu,fv,Q,E-P,i0,i1,a,b =   4.5360E+06 -4.4487E-01  3.4461E+01 -1.7626E-02 -1.3371E-02  2.3421E+02  0.0000E+00     2     3  2.5000E-01  7.5000E-01
time,fu0,fu1,fu =   4.5360E+06 -1.4435E-02 -2.7199E-02 -1.7626E-02  2.500000000000000E-01  7.500000000000000E-01
 cg2d: Sum(rhs),rhsMax =   2.70812539060472E-12  9.12079410559005E+00
(PID.TID 0000.0001)                    cg2d_init_res =    2.76990528867496E-01
(PID.TID 0000.0001)                       cg2d_iters =    24
(PID.TID 0000.0001)                         cg2d_res =    6.08001344960431E-14
(PID.TID 0000.0001) // =======================================================
(PID.TID 0000.0001) // Begin MONITOR dynamic field statistics
(PID.TID 0000.0001) // =======================================================
(PID.TID 0000.0001) %MON time_tsnumber                =                   106
(PID.TID 0000.0001) %MON time_secondsf                =   4.5792000000000E+06
(PID.TID 0000.0001) %MON dynstat_eta_max              =   1.0856367664295E+00
(PID.TID 0000.0001) %MON dynstat_eta_min              =  -1.5597385111244E+00
(PID.TID 0000.0001) %MON dynstat_eta_mean             =  -1.7456909983795E-15
(PID.TID 0000.0001) %MON dynstat_eta_sd               =   4.9666605780190E-01
(PID.TID 0000.0001) %MON dynstat_eta_del2             =   2.6493207820158E-02
(PID.TID 0000.0001) %MON dynstat_uvel_max             =   1.9684552495181E-01
(PID.TID 0000.0001) %MON dynstat_uvel_min             =  -1.2925302155106E-01
(PID.TID 0000.0001) %MON dynstat_uvel_mean            =   1.0918263057715E-03
(PID.TID 0000.0001) %MON dynstat_uvel_sd              =   1.5025541579874E-02
(PID.TID 0000.0001) %MON dynstat_uvel_del2            =   3.3799675341600E-03
(PID.TID 0000.0001) %MON dynstat_vvel_max             =   1.5785736753275E-01
(PID.TID 0000.0001) %MON dynstat_vvel_min             =  -1.3159092663847E-01
(PID.TID 0000.0001) %MON dynstat_vvel_mean            =   9.0429848775831E-04
(PID.TID 0000.0001) %MON dynstat_vvel_sd              =   1.3861695586040E-02
(PID.TID 0000.0001) %MON dynstat_vvel_del2            =   3.3877350401993E-03
(PID.TID 0000.0001) %MON dynstat_wvel_max             =   1.4911862622062E-04
(PID.TID 0000.0001) %MON dynstat_wvel_min             =  -2.1471490173964E-04
(PID.TID 0000.0001) %MON dynstat_wvel_mean            =  -4.6493142684397E-23
(PID.TID 0000.0001) %MON dynstat_wvel_sd              =   1.8126829696023E-05
(PID.TID 0000.0001) %MON dynstat_wvel_del2            =   5.9347822779357E-06
(PID.TID 0000.0001) %MON dynstat_theta_max            =   3.0061908599532E+01
(PID.TID 0000.0001) %MON dynstat_theta_min            =  -2.0045305714121E+00
(PID.TID 0000.0001) %MON dynstat_theta_mean           =   3.5867888869459E+00
(PID.TID 0000.0001) %MON dynstat_theta_sd             =   4.3373417092463E+00
(PID.TID 0000.0001) %MON dynstat_theta_del2           =   1.3964635586687E-01
(PID.TID 0000.0001) %MON dynstat_salt_max             =   3.7381891554351E+01
(PID.TID 0000.0001) %MON dynstat_salt_min             =   2.9887698185340E+01
(PID.TID 0000.0001) %MON dynstat_salt_mean            =   3.4715917196513E+01
(PID.TID 0000.0001) %MON dynstat_salt_sd              =   2.9537336867271E-01
(PID.TID 0000.0001) %MON dynstat_salt_del2            =   2.5181525078620E-02
(PID.TID 0000.0001) %MON dynstat_sst_max              =   3.0061908599532E+01
(PID.TID 0000.0001) %MON dynstat_sst_min              =  -1.9216475236304E+00
(PID.TID 0000.0001) %MON dynstat_sst_mean             =   1.8683517704203E+01
(PID.TID 0000.0001) %MON dynstat_sst_sd               =   8.9428616600910E+00
(PID.TID 0000.0001) %MON dynstat_sst_del2             =   2.6609082160428E-01
(PID.TID 0000.0001) %MON dynstat_sss_max              =   3.7381890786684E+01
(PID.TID 0000.0001) %MON dynstat_sss_min              =   2.9887698185340E+01
(PID.TID 0000.0001) %MON dynstat_sss_mean             =   3.4837587688450E+01
(PID.TID 0000.0001) %MON dynstat_sss_sd               =   9.5505039233931E-01
(PID.TID 0000.0001) %MON dynstat_sss_del2             =   7.7743675341094E-02
(PID.TID 0000.0001) %MON extforcing_qnet_max          =   3.3746610260010E+02
(PID.TID 0000.0001) %MON extforcing_qnet_min          =  -1.7058937454224E+02
(PID.TID 0000.0001) %MON extforcing_qnet_mean         =  -1.2290204731744E+01
(PID.TID 0000.0001) %MON extforcing_qnet_sd           =   6.9225783255105E+01
(PID.TID 0000.0001) %MON extforcing_qnet_del2         =   8.1475108897318E+00
(PID.TID 0000.0001) %MON extforcing_qsw_max           =   0.0000000000000E+00
(PID.TID 0000.0001) %MON extforcing_qsw_min           =   0.0000000000000E+00
(PID.TID 0000.0001) %MON extforcing_qsw_mean          =   0.0000000000000E+00
(PID.TID 0000.0001) %MON extforcing_qsw_sd            =   0.0000000000000E+00
(PID.TID 0000.0001) %MON extforcing_qsw_del2          =   0.0000000000000E+00
(PID.TID 0000.0001) %MON extforcing_empmr_max         =   0.0000000000000E+00
(PID.TID 0000.0001) %MON extforcing_empmr_min         =   0.0000000000000E+00
(PID.TID 0000.0001) %MON extforcing_empmr_mean        =   0.0000000000000E+00
(PID.TID 0000.0001) %MON extforcing_empmr_sd          =   0.0000000000000E+00
(PID.TID 0000.0001) %MON extforcing_empmr_del2        =   0.0000000000000E+00
(PID.TID 0000.0001) %MON extforcing_fu_max            =   3.1456816941500E-01
(PID.TID 0000.0001) %MON extforcing_fu_min            =  -2.5611707195640E-01
(PID.TID 0000.0001) %MON extforcing_fu_mean           =   1.8337238537574E-02
(PID.TID 0000.0001) %MON extforcing_fu_sd             =   9.3574654532508E-02
(PID.TID 0000.0001) %MON extforcing_fu_del2           =   7.9717920102726E-03
(PID.TID 0000.0001) %MON extforcing_fv_max            =   1.6103386878967E-01
(PID.TID 0000.0001) %MON extforcing_fv_min            =  -1.8853398412466E-01
(PID.TID 0000.0001) %MON extforcing_fv_mean           =  -7.2949375657314E-03
(PID.TID 0000.0001) %MON extforcing_fv_sd             =   4.3014554625987E-02
(PID.TID 0000.0001) %MON extforcing_fv_del2           =   4.7094742197129E-03
(PID.TID 0000.0001) %MON advcfl_uvel_max              =   3.2532228672217E-02
(PID.TID 0000.0001) %MON advcfl_vvel_max              =   1.5334577391909E-02
(PID.TID 0000.0001) %MON advcfl_wvel_max              =   7.9328103483848E-02
(PID.TID 0000.0001) %MON advcfl_W_hf_max              =   8.1698237373122E-02
(PID.TID 0000.0001) %MON pe_b_mean                    =   3.1565317551624E-04
(PID.TID 0000.0001) %MON ke_max                       =   1.9049513923747E-02
(PID.TID 0000.0001) %MON ke_mean                      =   1.8974106208782E-04
(PID.TID 0000.0001) %MON ke_vol                       =   1.3226782436723E+18
(PID.TID 0000.0001) %MON vort_r_min                   =  -4.6471368367952E-07
(PID.TID 0000.0001) %MON vort_r_max                   =   3.9559166270869E-07
(PID.TID 0000.0001) %MON vort_a_mean                  =  -2.5205769057338E-05
(PID.TID 0000.0001) %MON vort_a_sd                    =   7.3403446878529E-05
(PID.TID 0000.0001) %MON vort_p_mean                  =  -3.1758669133990E-05
(PID.TID 0000.0001) %MON vort_p_sd                    =   1.3126400345268E-04
(PID.TID 0000.0001) %MON surfExpan_theta_mean         =   1.0699663592335E-05
(PID.TID 0000.0001) %MON surfExpan_salt_mean          =   2.2613701690565E-07
(PID.TID 0000.0001) // =======================================================
(PID.TID 0000.0001) // End MONITOR dynamic field statistics
(PID.TID 0000.0001) // =======================================================
time,SST,SSS,fu,fv,Q,E-P,i0,i1,a,b =   4.5792E+06 -4.3907E-01  3.4463E+01 -1.7838E-02 -1.3087E-02  2.3379E+02  0.0000E+00     2     3  2.6667E-01  7.3333E-01
time,fu0,fu1,fu =   4.5792E+06 -1.4435E-02 -2.7199E-02 -1.7838E-02  2.666666666666667E-01  7.333333333333334E-01
 cg2d: Sum(rhs),rhsMax =   2.76754313910388E-12  8.86256540630887E+00
(PID.TID 0000.0001)                    cg2d_init_res =    2.90362906870327E-01
(PID.TID 0000.0001)                       cg2d_iters =    24
(PID.TID 0000.0001)                         cg2d_res =    6.32549596707008E-14
(PID.TID 0000.0001) // =======================================================
(PID.TID 0000.0001) // Begin MONITOR dynamic field statistics
(PID.TID 0000.0001) // =======================================================
(PID.TID 0000.0001) %MON time_tsnumber                =                   107
(PID.TID 0000.0001) %MON time_secondsf                =   4.6224000000000E+06
(PID.TID 0000.0001) %MON dynstat_eta_max              =   1.0488035884779E+00
(PID.TID 0000.0001) %MON dynstat_eta_min              =  -1.5617832955359E+00
(PID.TID 0000.0001) %MON dynstat_eta_mean             =  -1.8088591014291E-15
(PID.TID 0000.0001) %MON dynstat_eta_sd               =   4.9837554928285E-01
(PID.TID 0000.0001) %MON dynstat_eta_del2             =   2.6484873689659E-02
(PID.TID 0000.0001) %MON dynstat_uvel_max             =   2.0051756562136E-01
(PID.TID 0000.0001) %MON dynstat_uvel_min             =  -1.2980266334803E-01
(PID.TID 0000.0001) %MON dynstat_uvel_mean            =   1.1056450647848E-03
(PID.TID 0000.0001) %MON dynstat_uvel_sd              =   1.5207607832747E-02
(PID.TID 0000.0001) %MON dynstat_uvel_del2            =   3.3882273536091E-03
(PID.TID 0000.0001) %MON dynstat_vvel_max             =   1.5928762434149E-01
(PID.TID 0000.0001) %MON dynstat_vvel_min             =  -1.3275317853347E-01
(PID.TID 0000.0001) %MON dynstat_vvel_mean            =   9.8561003635007E-04
(PID.TID 0000.0001) %MON dynstat_vvel_sd              =   1.3826857429083E-02
(PID.TID 0000.0001) %MON dynstat_vvel_del2            =   3.3808407103089E-03
(PID.TID 0000.0001) %MON dynstat_wvel_max             =   1.5039581708703E-04
(PID.TID 0000.0001) %MON dynstat_wvel_min             =  -2.1643657153506E-04
(PID.TID 0000.0001) %MON dynstat_wvel_mean            =   2.8465868144287E-22
(PID.TID 0000.0001) %MON dynstat_wvel_sd              =   1.8065832281659E-05
(PID.TID 0000.0001) %MON dynstat_wvel_del2            =   5.9040212589132E-06
(PID.TID 0000.0001) %MON dynstat_theta_max            =   2.9979984094657E+01
(PID.TID 0000.0001) %MON dynstat_theta_min            =  -2.0035599718849E+00
(PID.TID 0000.0001) %MON dynstat_theta_mean           =   3.5867043915372E+00
(PID.TID 0000.0001) %MON dynstat_theta_sd             =   4.3372266343793E+00
(PID.TID 0000.0001) %MON dynstat_theta_del2           =   1.3964024464416E-01
(PID.TID 0000.0001) %MON dynstat_salt_max             =   3.7381708000281E+01
(PID.TID 0000.0001) %MON dynstat_salt_min             =   2.9887224369125E+01
(PID.TID 0000.0001) %MON dynstat_salt_mean            =   3.4715915371976E+01
(PID.TID 0000.0001) %MON dynstat_salt_sd              =   2.9535174316561E-01
(PID.TID 0000.0001) %MON dynstat_salt_del2            =   2.5165362893050E-02
(PID.TID 0000.0001) %MON dynstat_sst_max              =   2.9979984094657E+01
(PID.TID 0000.0001) %MON dynstat_sst_min              =  -1.9208655959994E+00
(PID.TID 0000.0001) %MON dynstat_sst_mean             =   1.8686879306271E+01
(PID.TID 0000.0001) %MON dynstat_sst_sd               =   8.9443891423353E+00
(PID.TID 0000.0001) %MON dynstat_sst_del2             =   2.6599153535360E-01
(PID.TID 0000.0001) %MON dynstat_sss_max              =   3.7381707243172E+01
(PID.TID 0000.0001) %MON dynstat_sss_min              =   2.9887224369125E+01
(PID.TID 0000.0001) %MON dynstat_sss_mean             =   3.4837628714557E+01
(PID.TID 0000.0001) %MON dynstat_sss_sd               =   9.5490514620969E-01
(PID.TID 0000.0001) %MON dynstat_sss_del2             =   7.7686206762079E-02
(PID.TID 0000.0001) %MON extforcing_qnet_max          =   3.3606702677409E+02
(PID.TID 0000.0001) %MON extforcing_qnet_min          =  -1.7043973490397E+02
(PID.TID 0000.0001) %MON extforcing_qnet_mean         =  -1.2178534981930E+01
(PID.TID 0000.0001) %MON extforcing_qnet_sd           =   6.8564785019729E+01
(PID.TID 0000.0001) %MON extforcing_qnet_del2         =   8.1236584113866E+00
(PID.TID 0000.0001) %MON extforcing_qsw_max           =   0.0000000000000E+00
(PID.TID 0000.0001) %MON extforcing_qsw_min           =   0.0000000000000E+00
(PID.TID 0000.0001) %MON extforcing_qsw_mean          =   0.0000000000000E+00
(PID.TID 0000.0001) %MON extforcing_qsw_sd            =   0.0000000000000E+00
(PID.TID 0000.0001) %MON extforcing_qsw_del2          =   0.0000000000000E+00
(PID.TID 0000.0001) %MON extforcing_empmr_max         =   0.0000000000000E+00
(PID.TID 0000.0001) %MON extforcing_empmr_min         =   0.0000000000000E+00
(PID.TID 0000.0001) %MON extforcing_empmr_mean        =   0.0000000000000E+00
(PID.TID 0000.0001) %MON extforcing_empmr_sd          =   0.0000000000000E+00
(PID.TID 0000.0001) %MON extforcing_empmr_del2        =   0.0000000000000E+00
(PID.TID 0000.0001) %MON extforcing_fu_max            =   3.1523034572601E-01
(PID.TID 0000.0001) %MON extforcing_fu_min            =  -2.5880938669046E-01
(PID.TID 0000.0001) %MON extforcing_fu_mean           =   1.8384338332303E-02
(PID.TID 0000.0001) %MON extforcing_fu_sd             =   9.3654975852564E-02
(PID.TID 0000.0001) %MON extforcing_fu_del2           =   7.9759880590199E-03
(PID.TID 0000.0001) %MON extforcing_fv_max            =   1.6049519777298E-01
(PID.TID 0000.0001) %MON extforcing_fv_min            =  -1.8779096603394E-01
(PID.TID 0000.0001) %MON extforcing_fv_mean           =  -7.3001517407161E-03
(PID.TID 0000.0001) %MON extforcing_fv_sd             =   4.2910526443214E-02
(PID.TID 0000.0001) %MON extforcing_fv_del2           =   4.6914398230298E-03
(PID.TID 0000.0001) %MON advcfl_uvel_max              =   3.3139098789203E-02
(PID.TID 0000.0001) %MON advcfl_vvel_max              =   1.5473515371598E-02
(PID.TID 0000.0001) %MON advcfl_wvel_max              =   8.6529865134598E-02
(PID.TID 0000.0001) %MON advcfl_W_hf_max              =   8.9326988615117E-02
(PID.TID 0000.0001) %MON pe_b_mean                    =   3.1782982942948E-04
(PID.TID 0000.0001) %MON ke_max                       =   1.9716531540618E-02
(PID.TID 0000.0001) %MON ke_mean                      =   1.9189153707878E-04
(PID.TID 0000.0001) %MON ke_vol                       =   1.3226782436723E+18
(PID.TID 0000.0001) %MON vort_r_min                   =  -4.6481167612647E-07
(PID.TID 0000.0001) %MON vort_r_max                   =   3.9662204979925E-07
(PID.TID 0000.0001) %MON vort_a_mean                  =  -2.5205769064321E-05
(PID.TID 0000.0001) %MON vort_a_sd                    =   7.3403444944316E-05
(PID.TID 0000.0001) %MON vort_p_mean                  =  -3.1758669142789E-05
(PID.TID 0000.0001) %MON vort_p_sd                    =   1.3126403768757E-04
(PID.TID 0000.0001) %MON surfExpan_theta_mean         =   1.0110415130149E-05
(PID.TID 0000.0001) %MON surfExpan_salt_mean          =   1.7642985117544E-07
(PID.TID 0000.0001) // =======================================================
(PID.TID 0000.0001) // End MONITOR dynamic field statistics
(PID.TID 0000.0001) // =======================================================
time,SST,SSS,fu,fv,Q,E-P,i0,i1,a,b =   4.6224E+06 -4.3327E-01  3.4466E+01 -1.8051E-02 -1.2803E-02  2.3337E+02  0.0000E+00     2     3  2.8333E-01  7.1667E-01
time,fu0,fu1,fu =   4.6224E+06 -1.4435E-02 -2.7199E-02 -1.8051E-02  2.833333333333333E-01  7.166666666666667E-01
 cg2d: Sum(rhs),rhsMax =   2.79926082313864E-12  8.89641373753398E+00
(PID.TID 0000.0001)                    cg2d_init_res =    2.93515770093599E-01
(PID.TID 0000.0001)                       cg2d_iters =    24
(PID.TID 0000.0001)                         cg2d_res =    6.35250417417403E-14
(PID.TID 0000.0001) // =======================================================
(PID.TID 0000.0001) // Begin MONITOR dynamic field statistics
(PID.TID 0000.0001) // =======================================================
(PID.TID 0000.0001) %MON time_tsnumber                =                   108
(PID.TID 0000.0001) %MON time_secondsf                =   4.6656000000000E+06
(PID.TID 0000.0001) %MON dynstat_eta_max              =   1.0103441899176E+00
(PID.TID 0000.0001) %MON dynstat_eta_min              =  -1.5634064773981E+00
(PID.TID 0000.0001) %MON dynstat_eta_mean             =  -1.4815071050362E-15
(PID.TID 0000.0001) %MON dynstat_eta_sd               =   5.0006566993356E-01
(PID.TID 0000.0001) %MON dynstat_eta_del2             =   2.6535556638410E-02
(PID.TID 0000.0001) %MON dynstat_uvel_max             =   2.0277744681077E-01
(PID.TID 0000.0001) %MON dynstat_uvel_min             =  -1.3030275125430E-01
(PID.TID 0000.0001) %MON dynstat_uvel_mean            =   1.1229577549585E-03
(PID.TID 0000.0001) %MON dynstat_uvel_sd              =   1.5373994126653E-02
(PID.TID 0000.0001) %MON dynstat_uvel_del2            =   3.3945633675468E-03
(PID.TID 0000.0001) %MON dynstat_vvel_max             =   1.6057732926921E-01
(PID.TID 0000.0001) %MON dynstat_vvel_min             =  -1.3362741514823E-01
(PID.TID 0000.0001) %MON dynstat_vvel_mean            =   1.0622029175142E-03
(PID.TID 0000.0001) %MON dynstat_vvel_sd              =   1.3793487202925E-02
(PID.TID 0000.0001) %MON dynstat_vvel_del2            =   3.3728473912272E-03
(PID.TID 0000.0001) %MON dynstat_wvel_max             =   1.5166753554356E-04
(PID.TID 0000.0001) %MON dynstat_wvel_min             =  -2.1737445516384E-04
(PID.TID 0000.0001) %MON dynstat_wvel_mean            =  -3.9950385431943E-22
(PID.TID 0000.0001) %MON dynstat_wvel_sd              =   1.8013056431175E-05
(PID.TID 0000.0001) %MON dynstat_wvel_del2            =   5.8792090647417E-06
(PID.TID 0000.0001) %MON dynstat_theta_max            =   2.9891070099968E+01
(PID.TID 0000.0001) %MON dynstat_theta_min            =  -2.0026060739097E+00
(PID.TID 0000.0001) %MON dynstat_theta_mean           =   3.5866261818696E+00
(PID.TID 0000.0001) %MON dynstat_theta_sd             =   4.3371403865714E+00
(PID.TID 0000.0001) %MON dynstat_theta_del2           =   1.3962843793236E-01
(PID.TID 0000.0001) %MON dynstat_salt_max             =   3.7381546555986E+01
(PID.TID 0000.0001) %MON dynstat_salt_min             =   2.9886723318901E+01
(PID.TID 0000.0001) %MON dynstat_salt_mean            =   3.4715914139427E+01
(PID.TID 0000.0001) %MON dynstat_salt_sd              =   2.9532833001709E-01
(PID.TID 0000.0001) %MON dynstat_salt_del2            =   2.5149420628042E-02
(PID.TID 0000.0001) %MON dynstat_sst_max              =   2.9891070099968E+01
(PID.TID 0000.0001) %MON dynstat_sst_min              =  -1.9201874558065E+00
(PID.TID 0000.0001) %MON dynstat_sst_mean             =   1.8690224091330E+01
(PID.TID 0000.0001) %MON dynstat_sst_sd               =   8.9462372448425E+00
(PID.TID 0000.0001) %MON dynstat_sst_del2             =   2.6581642138599E-01
(PID.TID 0000.0001) %MON dynstat_sss_max              =   3.7381545811121E+01
(PID.TID 0000.0001) %MON dynstat_sss_min              =   2.9886723318901E+01
(PID.TID 0000.0001) %MON dynstat_sss_mean             =   3.4837674900401E+01
(PID.TID 0000.0001) %MON dynstat_sss_sd               =   9.5475434704972E-01
(PID.TID 0000.0001) %MON dynstat_sss_del2             =   7.7623198313432E-02
(PID.TID 0000.0001) %MON extforcing_qnet_max          =   3.3466795094808E+02
(PID.TID 0000.0001) %MON extforcing_qnet_min          =  -1.7029009526571E+02
(PID.TID 0000.0001) %MON extforcing_qnet_mean         =  -1.2066865232117E+01
(PID.TID 0000.0001) %MON extforcing_qnet_sd           =   6.7908268160439E+01
(PID.TID 0000.0001) %MON extforcing_qnet_del2         =   8.1009652593210E+00
(PID.TID 0000.0001) %MON extforcing_qsw_max           =   0.0000000000000E+00
(PID.TID 0000.0001) %MON extforcing_qsw_min           =   0.0000000000000E+00
(PID.TID 0000.0001) %MON extforcing_qsw_mean          =   0.0000000000000E+00
(PID.TID 0000.0001) %MON extforcing_qsw_sd            =   0.0000000000000E+00
(PID.TID 0000.0001) %MON extforcing_qsw_del2          =   0.0000000000000E+00
(PID.TID 0000.0001) %MON extforcing_empmr_max         =   0.0000000000000E+00
(PID.TID 0000.0001) %MON extforcing_empmr_min         =   0.0000000000000E+00
(PID.TID 0000.0001) %MON extforcing_empmr_mean        =   0.0000000000000E+00
(PID.TID 0000.0001) %MON extforcing_empmr_sd          =   0.0000000000000E+00
(PID.TID 0000.0001) %MON extforcing_empmr_del2        =   0.0000000000000E+00
(PID.TID 0000.0001) %MON extforcing_fu_max            =   3.1589252203703E-01
(PID.TID 0000.0001) %MON extforcing_fu_min            =  -2.6150170142452E-01
(PID.TID 0000.0001) %MON extforcing_fu_mean           =   1.8431438127032E-02
(PID.TID 0000.0001) %MON extforcing_fu_sd             =   9.3740608414145E-02
(PID.TID 0000.0001) %MON extforcing_fu_del2           =   7.9808863881968E-03
(PID.TID 0000.0001) %MON extforcing_fv_max            =   1.5995652675629E-01
(PID.TID 0000.0001) %MON extforcing_fv_min            =  -1.8704794794321E-01
(PID.TID 0000.0001) %MON extforcing_fv_mean           =  -7.3053659157009E-03
(PID.TID 0000.0001) %MON extforcing_fv_sd             =   4.2810657499897E-02
(PID.TID 0000.0001) %MON extforcing_fv_del2           =   4.6745034700604E-03
(PID.TID 0000.0001) %MON advcfl_uvel_max              =   3.3512584402573E-02
(PID.TID 0000.0001) %MON advcfl_vvel_max              =   1.5598799863135E-02
(PID.TID 0000.0001) %MON advcfl_wvel_max              =   9.1912143075950E-02
(PID.TID 0000.0001) %MON advcfl_W_hf_max              =   9.5077995558242E-02
(PID.TID 0000.0001) %MON pe_b_mean                    =   3.1998917132149E-04
(PID.TID 0000.0001) %MON ke_max                       =   2.0231505048659E-02
(PID.TID 0000.0001) %MON ke_mean                      =   1.9387741028122E-04
(PID.TID 0000.0001) %MON ke_vol                       =   1.3226782436723E+18
(PID.TID 0000.0001) %MON vort_r_min                   =  -4.6544661928350E-07
(PID.TID 0000.0001) %MON vort_r_max                   =   3.9770863430783E-07
(PID.TID 0000.0001) %MON vort_a_mean                  =  -2.5205769071582E-05
(PID.TID 0000.0001) %MON vort_a_sd                    =   7.3403444058714E-05
(PID.TID 0000.0001) %MON vort_p_mean                  =  -3.1758669151937E-05
(PID.TID 0000.0001) %MON vort_p_sd                    =   1.3126406992668E-04
(PID.TID 0000.0001) %MON surfExpan_theta_mean         =   9.5050738286777E-06
(PID.TID 0000.0001) %MON surfExpan_salt_mean          =   1.2253542762816E-07
(PID.TID 0000.0001) // =======================================================
(PID.TID 0000.0001) // End MONITOR dynamic field statistics
(PID.TID 0000.0001) // =======================================================
time,SST,SSS,fu,fv,Q,E-P,i0,i1,a,b =   4.6656E+06 -4.2747E-01  3.4469E+01 -1.8264E-02 -1.2518E-02  2.3296E+02  0.0000E+00     2     3  3.0000E-01  7.0000E-01
time,fu0,fu1,fu =   4.6656E+06 -1.4435E-02 -2.7199E-02 -1.8264E-02  3.000000000000000E-01  7.000000000000000E-01
 cg2d: Sum(rhs),rhsMax =   2.52887294438509E-12  8.91497210429915E+00
(PID.TID 0000.0001)                    cg2d_init_res =    2.95628656926053E-01
(PID.TID 0000.0001)                       cg2d_iters =    24
(PID.TID 0000.0001)                         cg2d_res =    6.38071891019209E-14
(PID.TID 0000.0001) // =======================================================
(PID.TID 0000.0001) // Begin MONITOR dynamic field statistics
(PID.TID 0000.0001) // =======================================================
(PID.TID 0000.0001) %MON time_tsnumber                =                   109
(PID.TID 0000.0001) %MON time_secondsf                =   4.7088000000000E+06
(PID.TID 0000.0001) %MON dynstat_eta_max              =   9.9500813943369E-01
(PID.TID 0000.0001) %MON dynstat_eta_min              =  -1.5646900794541E+00
(PID.TID 0000.0001) %MON dynstat_eta_mean             =  -1.6526652122128E-15
(PID.TID 0000.0001) %MON dynstat_eta_sd               =   5.0174056150392E-01
(PID.TID 0000.0001) %MON dynstat_eta_del2             =   2.6624933710053E-02
(PID.TID 0000.0001) %MON dynstat_uvel_max             =   2.0358986452998E-01
(PID.TID 0000.0001) %MON dynstat_uvel_min             =  -1.3075253118424E-01
(PID.TID 0000.0001) %MON dynstat_uvel_mean            =   1.1428663273412E-03
(PID.TID 0000.0001) %MON dynstat_uvel_sd              =   1.5522646065329E-02
(PID.TID 0000.0001) %MON dynstat_uvel_del2            =   3.4005108325778E-03
(PID.TID 0000.0001) %MON dynstat_vvel_max             =   1.6171913577850E-01
(PID.TID 0000.0001) %MON dynstat_vvel_min             =  -1.3421102673235E-01
(PID.TID 0000.0001) %MON dynstat_vvel_mean            =   1.1334880080475E-03
(PID.TID 0000.0001) %MON dynstat_vvel_sd              =   1.3761277084161E-02
(PID.TID 0000.0001) %MON dynstat_vvel_del2            =   3.3649687224870E-03
(PID.TID 0000.0001) %MON dynstat_wvel_max             =   1.5290102774725E-04
(PID.TID 0000.0001) %MON dynstat_wvel_min             =  -2.1750216996440E-04
(PID.TID 0000.0001) %MON dynstat_wvel_mean            =  -7.2192817928961E-22
(PID.TID 0000.0001) %MON dynstat_wvel_sd              =   1.7967129545944E-05
(PID.TID 0000.0001) %MON dynstat_wvel_del2            =   5.8574493274561E-06
(PID.TID 0000.0001) %MON dynstat_theta_max            =   2.9797117719974E+01
(PID.TID 0000.0001) %MON dynstat_theta_min            =  -2.0016588710888E+00
(PID.TID 0000.0001) %MON dynstat_theta_mean           =   3.5865544048676E+00
(PID.TID 0000.0001) %MON dynstat_theta_sd             =   4.3370826396555E+00
(PID.TID 0000.0001) %MON dynstat_theta_del2           =   1.3962555020926E-01
(PID.TID 0000.0001) %MON dynstat_salt_max             =   3.7381401627376E+01
(PID.TID 0000.0001) %MON dynstat_salt_min             =   2.9886212412822E+01
(PID.TID 0000.0001) %MON dynstat_salt_mean            =   3.4715913539631E+01
(PID.TID 0000.0001) %MON dynstat_salt_sd              =   2.9530328788842E-01
(PID.TID 0000.0001) %MON dynstat_salt_del2            =   2.5136932072814E-02
(PID.TID 0000.0001) %MON dynstat_sst_max              =   2.9797117719974E+01
(PID.TID 0000.0001) %MON dynstat_sst_min              =  -1.9196170786291E+00
(PID.TID 0000.0001) %MON dynstat_sst_mean             =   1.8693610044818E+01
(PID.TID 0000.0001) %MON dynstat_sst_sd               =   8.9482497654545E+00
(PID.TID 0000.0001) %MON dynstat_sst_del2             =   2.6562260950712E-01
(PID.TID 0000.0001) %MON dynstat_sss_max              =   3.7381400896909E+01
(PID.TID 0000.0001) %MON dynstat_sss_min              =   2.9886212412822E+01
(PID.TID 0000.0001) %MON dynstat_sss_mean             =   3.4837734463888E+01
(PID.TID 0000.0001) %MON dynstat_sss_sd               =   9.5460438918343E-01
(PID.TID 0000.0001) %MON dynstat_sss_del2             =   7.7568635466764E-02
(PID.TID 0000.0001) %MON extforcing_qnet_max          =   3.3326887512207E+02
(PID.TID 0000.0001) %MON extforcing_qnet_min          =  -1.7014045562744E+02
(PID.TID 0000.0001) %MON extforcing_qnet_mean         =  -1.1955195482304E+01
(PID.TID 0000.0001) %MON extforcing_qnet_sd           =   6.7256363910996E+01
(PID.TID 0000.0001) %MON extforcing_qnet_del2         =   8.0793316151235E+00
(PID.TID 0000.0001) %MON extforcing_qsw_max           =   0.0000000000000E+00
(PID.TID 0000.0001) %MON extforcing_qsw_min           =   0.0000000000000E+00
(PID.TID 0000.0001) %MON extforcing_qsw_mean          =   0.0000000000000E+00
(PID.TID 0000.0001) %MON extforcing_qsw_sd            =   0.0000000000000E+00
(PID.TID 0000.0001) %MON extforcing_qsw_del2          =   0.0000000000000E+00
(PID.TID 0000.0001) %MON extforcing_empmr_max         =   0.0000000000000E+00
(PID.TID 0000.0001) %MON extforcing_empmr_min         =   0.0000000000000E+00
(PID.TID 0000.0001) %MON extforcing_empmr_mean        =   0.0000000000000E+00
(PID.TID 0000.0001) %MON extforcing_empmr_sd          =   0.0000000000000E+00
(PID.TID 0000.0001) %MON extforcing_empmr_del2        =   0.0000000000000E+00
(PID.TID 0000.0001) %MON extforcing_fu_max            =   3.1678166687489E-01
(PID.TID 0000.0001) %MON extforcing_fu_min            =  -2.6419401615858E-01
(PID.TID 0000.0001) %MON extforcing_fu_mean           =   1.8478537921761E-02
(PID.TID 0000.0001) %MON extforcing_fu_sd             =   9.3831537675814E-02
(PID.TID 0000.0001) %MON extforcing_fu_del2           =   7.9876547444275E-03
(PID.TID 0000.0001) %MON extforcing_fv_max            =   1.5941785573959E-01
(PID.TID 0000.0001) %MON extforcing_fv_min            =  -1.8630492985249E-01
(PID.TID 0000.0001) %MON extforcing_fv_mean           =  -7.3105800906856E-03
(PID.TID 0000.0001) %MON extforcing_fv_sd             =   4.2714976969337E-02
(PID.TID 0000.0001) %MON extforcing_fv_del2           =   4.6582878221569E-03
(PID.TID 0000.0001) %MON advcfl_uvel_max              =   3.3646850899236E-02
(PID.TID 0000.0001) %MON advcfl_vvel_max              =   1.5709717209325E-02
(PID.TID 0000.0001) %MON advcfl_wvel_max              =   9.5854355312457E-02
(PID.TID 0000.0001) %MON advcfl_W_hf_max              =   9.8850370877280E-02
(PID.TID 0000.0001) %MON pe_b_mean                    =   3.2213626812672E-04
(PID.TID 0000.0001) %MON ke_max                       =   2.0589580659032E-02
(PID.TID 0000.0001) %MON ke_mean                      =   1.9565631540150E-04
(PID.TID 0000.0001) %MON ke_vol                       =   1.3226782436723E+18
(PID.TID 0000.0001) %MON vort_r_min                   =  -4.6666616043215E-07
(PID.TID 0000.0001) %MON vort_r_max                   =   4.0645657207003E-07
(PID.TID 0000.0001) %MON vort_a_mean                  =  -2.5205769078815E-05
(PID.TID 0000.0001) %MON vort_a_sd                    =   7.3403444069447E-05
(PID.TID 0000.0001) %MON vort_p_mean                  =  -3.1758669161050E-05
(PID.TID 0000.0001) %MON vort_p_sd                    =   1.3126409842812E-04
(PID.TID 0000.0001) %MON surfExpan_theta_mean         =   8.8894765609087E-06
(PID.TID 0000.0001) %MON surfExpan_salt_mean          =   6.5256560227484E-08
(PID.TID 0000.0001) // =======================================================
(PID.TID 0000.0001) // End MONITOR dynamic field statistics
(PID.TID 0000.0001) // =======================================================
time,SST,SSS,fu,fv,Q,E-P,i0,i1,a,b =   4.7088E+06 -4.2167E-01  3.4471E+01 -1.8477E-02 -1.2234E-02  2.3254E+02  0.0000E+00     2     3  3.1667E-01  6.8333E-01
time,fu0,fu1,fu =   4.7088E+06 -1.4435E-02 -2.7199E-02 -1.8477E-02  3.166666666666667E-01  6.833333333333333E-01
 cg2d: Sum(rhs),rhsMax =   2.30663405043074E-12  8.91793955647196E+00
(PID.TID 0000.0001)                    cg2d_init_res =    2.96393956681260E-01
(PID.TID 0000.0001)                       cg2d_iters =    24
(PID.TID 0000.0001)                         cg2d_res =    6.40247591969248E-14
(PID.TID 0000.0001) // =======================================================
(PID.TID 0000.0001) // Begin MONITOR dynamic field statistics
(PID.TID 0000.0001) // =======================================================
(PID.TID 0000.0001) %MON time_tsnumber                =                   110
(PID.TID 0000.0001) %MON time_secondsf                =   4.7520000000000E+06
(PID.TID 0000.0001) %MON dynstat_eta_max              =   9.9316344586159E-01
(PID.TID 0000.0001) %MON dynstat_eta_min              =  -1.5656768018827E+00
(PID.TID 0000.0001) %MON dynstat_eta_mean             =  -1.2046372340083E-15
(PID.TID 0000.0001) %MON dynstat_eta_sd               =   5.0340229398355E-01
(PID.TID 0000.0001) %MON dynstat_eta_del2             =   2.6713057558523E-02
(PID.TID 0000.0001) %MON dynstat_uvel_max             =   2.0294901817737E-01
(PID.TID 0000.0001) %MON dynstat_uvel_min             =  -1.3115198047862E-01
(PID.TID 0000.0001) %MON dynstat_uvel_mean            =   1.1644327217162E-03
(PID.TID 0000.0001) %MON dynstat_uvel_sd              =   1.5652365140182E-02
(PID.TID 0000.0001) %MON dynstat_uvel_del2            =   3.4060634153573E-03
(PID.TID 0000.0001) %MON dynstat_vvel_max             =   1.6270637252133E-01
(PID.TID 0000.0001) %MON dynstat_vvel_min             =  -1.3450529885619E-01
(PID.TID 0000.0001) %MON dynstat_vvel_mean            =   1.1990234620418E-03
(PID.TID 0000.0001) %MON dynstat_vvel_sd              =   1.3729626920636E-02
(PID.TID 0000.0001) %MON dynstat_vvel_del2            =   3.3587450200786E-03
(PID.TID 0000.0001) %MON dynstat_wvel_max             =   1.5406339966496E-04
(PID.TID 0000.0001) %MON dynstat_wvel_min             =  -2.1680953592731E-04
(PID.TID 0000.0001) %MON dynstat_wvel_mean            =   1.1311343519887E-22
(PID.TID 0000.0001) %MON dynstat_wvel_sd              =   1.7926379474174E-05
(PID.TID 0000.0001) %MON dynstat_wvel_del2            =   5.8379692555468E-06
(PID.TID 0000.0001) %MON dynstat_theta_max            =   2.9736382237627E+01
(PID.TID 0000.0001) %MON dynstat_theta_min            =  -2.0007076123517E+00
(PID.TID 0000.0001) %MON dynstat_theta_mean           =   3.5864891428947E+00
(PID.TID 0000.0001) %MON dynstat_theta_sd             =   4.3370526535828E+00
(PID.TID 0000.0001) %MON dynstat_theta_del2           =   1.3962402375622E-01
(PID.TID 0000.0001) %MON dynstat_salt_max             =   3.7381267044287E+01
(PID.TID 0000.0001) %MON dynstat_salt_min             =   2.9885709485830E+01
(PID.TID 0000.0001) %MON dynstat_salt_mean            =   3.4715913604642E+01
(PID.TID 0000.0001) %MON dynstat_salt_sd              =   2.9527680160486E-01
(PID.TID 0000.0001) %MON dynstat_salt_del2            =   2.5123754972266E-02
(PID.TID 0000.0001) %MON dynstat_sst_max              =   2.9736382237627E+01
(PID.TID 0000.0001) %MON dynstat_sst_min              =  -1.9191531048961E+00
(PID.TID 0000.0001) %MON dynstat_sst_mean             =   1.8696985717835E+01
(PID.TID 0000.0001) %MON dynstat_sst_sd               =   8.9505736590744E+00
(PID.TID 0000.0001) %MON dynstat_sst_del2             =   2.6549622656242E-01
(PID.TID 0000.0001) %MON dynstat_sss_max              =   3.7381266330656E+01
(PID.TID 0000.0001) %MON dynstat_sss_min              =   2.9885709485830E+01
(PID.TID 0000.0001) %MON dynstat_sss_mean             =   3.4837810930242E+01
(PID.TID 0000.0001) %MON dynstat_sss_sd               =   9.5445379697094E-01
(PID.TID 0000.0001) %MON dynstat_sss_del2             =   7.7502830966519E-02
(PID.TID 0000.0001) %MON extforcing_qnet_max          =   3.3186979929606E+02
(PID.TID 0000.0001) %MON extforcing_qnet_min          =  -1.6999081598918E+02
(PID.TID 0000.0001) %MON extforcing_qnet_mean         =  -1.1843525732490E+01
(PID.TID 0000.0001) %MON extforcing_qnet_sd           =   6.6609207702359E+01
(PID.TID 0000.0001) %MON extforcing_qnet_del2         =   8.0578673950212E+00
(PID.TID 0000.0001) %MON extforcing_qsw_max           =   0.0000000000000E+00
(PID.TID 0000.0001) %MON extforcing_qsw_min           =   0.0000000000000E+00
(PID.TID 0000.0001) %MON extforcing_qsw_mean          =   0.0000000000000E+00
(PID.TID 0000.0001) %MON extforcing_qsw_sd            =   0.0000000000000E+00
(PID.TID 0000.0001) %MON extforcing_qsw_del2          =   0.0000000000000E+00
(PID.TID 0000.0001) %MON extforcing_empmr_max         =   0.0000000000000E+00
(PID.TID 0000.0001) %MON extforcing_empmr_min         =   0.0000000000000E+00
(PID.TID 0000.0001) %MON extforcing_empmr_mean        =   0.0000000000000E+00
(PID.TID 0000.0001) %MON extforcing_empmr_sd          =   0.0000000000000E+00
(PID.TID 0000.0001) %MON extforcing_empmr_del2        =   0.0000000000000E+00
(PID.TID 0000.0001) %MON extforcing_fu_max            =   3.1775237470865E-01
(PID.TID 0000.0001) %MON extforcing_fu_min            =  -2.6688633089264E-01
(PID.TID 0000.0001) %MON extforcing_fu_mean           =   1.8525637716491E-02
(PID.TID 0000.0001) %MON extforcing_fu_sd             =   9.3927748254735E-02
(PID.TID 0000.0001) %MON extforcing_fu_del2           =   7.9966285854764E-03
(PID.TID 0000.0001) %MON extforcing_fv_max            =   1.5887918472290E-01
(PID.TID 0000.0001) %MON extforcing_fv_min            =  -1.8556191176176E-01
(PID.TID 0000.0001) %MON extforcing_fv_mean           =  -7.3157942656703E-03
(PID.TID 0000.0001) %MON extforcing_fv_sd             =   4.2623513057775E-02
(PID.TID 0000.0001) %MON extforcing_fv_del2           =   4.6433498639147E-03
(PID.TID 0000.0001) %MON advcfl_uvel_max              =   3.3540939626464E-02
(PID.TID 0000.0001) %MON advcfl_vvel_max              =   1.5805619342204E-02
(PID.TID 0000.0001) %MON advcfl_wvel_max              =   9.7747624744374E-02
(PID.TID 0000.0001) %MON advcfl_W_hf_max              =   1.0059107300261E-01
(PID.TID 0000.0001) %MON pe_b_mean                    =   3.2427359082878E-04
(PID.TID 0000.0001) %MON ke_max                       =   2.0788954486841E-02
(PID.TID 0000.0001) %MON ke_mean                      =   1.9719417393945E-04
(PID.TID 0000.0001) %MON ke_vol                       =   1.3226782436723E+18
(PID.TID 0000.0001) %MON vort_r_min                   =  -4.6849820032398E-07
(PID.TID 0000.0001) %MON vort_r_max                   =   4.1808952943543E-07
(PID.TID 0000.0001) %MON vort_a_mean                  =  -2.5205769085737E-05
(PID.TID 0000.0001) %MON vort_a_sd                    =   7.3403444807017E-05
(PID.TID 0000.0001) %MON vort_p_mean                  =  -3.1758669169772E-05
(PID.TID 0000.0001) %MON vort_p_sd                    =   1.3126412153836E-04
(PID.TID 0000.0001) %MON surfExpan_theta_mean         =   8.2703240886151E-06
(PID.TID 0000.0001) %MON surfExpan_salt_mean          =   5.4687800412896E-09
(PID.TID 0000.0001) // =======================================================
(PID.TID 0000.0001) // End MONITOR dynamic field statistics
(PID.TID 0000.0001) // =======================================================
time,SST,SSS,fu,fv,Q,E-P,i0,i1,a,b =   4.7520E+06 -4.1587E-01  3.4474E+01 -1.8689E-02 -1.1950E-02  2.3212E+02  0.0000E+00     2     3  3.3333E-01  6.6667E-01
time,fu0,fu1,fu =   4.7520E+06 -1.4435E-02 -2.7199E-02 -1.8689E-02  3.333333333333333E-01  6.666666666666667E-01
 cg2d: Sum(rhs),rhsMax =   1.72490494110278E-12  8.90561081994298E+00
(PID.TID 0000.0001)                    cg2d_init_res =    2.95647054700368E-01
(PID.TID 0000.0001)                       cg2d_iters =    24
(PID.TID 0000.0001)                         cg2d_res =    6.40708970298141E-14
(PID.TID 0000.0001) // =======================================================
(PID.TID 0000.0001) // Begin MONITOR dynamic field statistics
(PID.TID 0000.0001) // =======================================================
(PID.TID 0000.0001) %MON time_tsnumber                =                   111
(PID.TID 0000.0001) %MON time_secondsf                =   4.7952000000000E+06
(PID.TID 0000.0001) %MON dynstat_eta_max              =   9.9034003081164E-01
(PID.TID 0000.0001) %MON dynstat_eta_min              =  -1.5663655841357E+00
(PID.TID 0000.0001) %MON dynstat_eta_mean             =  -1.6165034542954E-15
(PID.TID 0000.0001) %MON dynstat_eta_sd               =   5.0505062271604E-01
(PID.TID 0000.0001) %MON dynstat_eta_del2             =   2.6790101152155E-02
(PID.TID 0000.0001) %MON dynstat_uvel_max             =   2.0087859512018E-01
(PID.TID 0000.0001) %MON dynstat_uvel_min             =  -1.3150175076152E-01
(PID.TID 0000.0001) %MON dynstat_uvel_mean            =   1.1867089008619E-03
(PID.TID 0000.0001) %MON dynstat_uvel_sd              =   1.5762723923921E-02
(PID.TID 0000.0001) %MON dynstat_uvel_del2            =   3.4103266013903E-03
(PID.TID 0000.0001) %MON dynstat_vvel_max             =   1.6353313164934E-01
(PID.TID 0000.0001) %MON dynstat_vvel_min             =  -1.3451494629769E-01
(PID.TID 0000.0001) %MON dynstat_vvel_mean            =   1.2585208412069E-03
(PID.TID 0000.0001) %MON dynstat_vvel_sd              =   1.3697723974643E-02
(PID.TID 0000.0001) %MON dynstat_vvel_del2            =   3.3534351729088E-03
(PID.TID 0000.0001) %MON dynstat_wvel_max             =   1.5512189223292E-04
(PID.TID 0000.0001) %MON dynstat_wvel_min             =  -2.1530339415140E-04
(PID.TID 0000.0001) %MON dynstat_wvel_mean            =  -2.2334828657588E-22
(PID.TID 0000.0001) %MON dynstat_wvel_sd              =   1.7889098155020E-05
(PID.TID 0000.0001) %MON dynstat_wvel_del2            =   5.8180578968981E-06
(PID.TID 0000.0001) %MON dynstat_theta_max            =   2.9740332916365E+01
(PID.TID 0000.0001) %MON dynstat_theta_min            =  -1.9997405344040E+00
(PID.TID 0000.0001) %MON dynstat_theta_mean           =   3.5864303933822E+00
(PID.TID 0000.0001) %MON dynstat_theta_sd             =   4.3370491617703E+00
(PID.TID 0000.0001) %MON dynstat_theta_del2           =   1.3964544860400E-01
(PID.TID 0000.0001) %MON dynstat_salt_max             =   3.7381136312002E+01
(PID.TID 0000.0001) %MON dynstat_salt_min             =   2.9885232029512E+01
(PID.TID 0000.0001) %MON dynstat_salt_mean            =   3.4715914356124E+01
(PID.TID 0000.0001) %MON dynstat_salt_sd              =   2.9524916675490E-01
(PID.TID 0000.0001) %MON dynstat_salt_del2            =   2.5113703253796E-02
(PID.TID 0000.0001) %MON dynstat_sst_max              =   2.9740332916365E+01
(PID.TID 0000.0001) %MON dynstat_sst_min              =  -1.9187890440109E+00
(PID.TID 0000.0001) %MON dynstat_sst_mean             =   1.8700280953884E+01
(PID.TID 0000.0001) %MON dynstat_sst_sd               =   8.9531255903353E+00
(PID.TID 0000.0001) %MON dynstat_sst_del2             =   2.6553697479890E-01
(PID.TID 0000.0001) %MON dynstat_sss_max              =   3.7381135617735E+01
(PID.TID 0000.0001) %MON dynstat_sss_min              =   2.9885232029512E+01
(PID.TID 0000.0001) %MON dynstat_sss_mean             =   3.4837879687933E+01
(PID.TID 0000.0001) %MON dynstat_sss_sd               =   9.5429356905985E-01
(PID.TID 0000.0001) %MON dynstat_sss_del2             =   7.7462785533638E-02
(PID.TID 0000.0001) %MON extforcing_qnet_max          =   3.3047072347005E+02
(PID.TID 0000.0001) %MON extforcing_qnet_min          =  -1.6984117635091E+02
(PID.TID 0000.0001) %MON extforcing_qnet_mean         =  -1.1731855982677E+01
(PID.TID 0000.0001) %MON extforcing_qnet_sd           =   6.5966939273954E+01
(PID.TID 0000.0001) %MON extforcing_qnet_del2         =   8.0368369786323E+00
(PID.TID 0000.0001) %MON extforcing_qsw_max           =   0.0000000000000E+00
(PID.TID 0000.0001) %MON extforcing_qsw_min           =   0.0000000000000E+00
(PID.TID 0000.0001) %MON extforcing_qsw_mean          =   0.0000000000000E+00
(PID.TID 0000.0001) %MON extforcing_qsw_sd            =   0.0000000000000E+00
(PID.TID 0000.0001) %MON extforcing_qsw_del2          =   0.0000000000000E+00
(PID.TID 0000.0001) %MON extforcing_empmr_max         =   0.0000000000000E+00
(PID.TID 0000.0001) %MON extforcing_empmr_min         =   0.0000000000000E+00
(PID.TID 0000.0001) %MON extforcing_empmr_mean        =   0.0000000000000E+00
(PID.TID 0000.0001) %MON extforcing_empmr_sd          =   0.0000000000000E+00
(PID.TID 0000.0001) %MON extforcing_empmr_del2        =   0.0000000000000E+00
(PID.TID 0000.0001) %MON extforcing_fu_max            =   3.1872308254242E-01
(PID.TID 0000.0001) %MON extforcing_fu_min            =  -2.6957864562670E-01
(PID.TID 0000.0001) %MON extforcing_fu_mean           =   1.8572737511220E-02
(PID.TID 0000.0001) %MON extforcing_fu_sd             =   9.4029223939401E-02
(PID.TID 0000.0001) %MON extforcing_fu_del2           =   8.0081913399687E-03
(PID.TID 0000.0001) %MON extforcing_fv_max            =   1.5834051370621E-01
(PID.TID 0000.0001) %MON extforcing_fv_min            =  -1.8481889367104E-01
(PID.TID 0000.0001) %MON extforcing_fv_mean           =  -7.3210084406550E-03
(PID.TID 0000.0001) %MON extforcing_fv_sd             =   4.2536292965649E-02
(PID.TID 0000.0001) %MON extforcing_fv_del2           =   4.6293870021762E-03
(PID.TID 0000.0001) %MON advcfl_uvel_max              =   3.3198765343553E-02
(PID.TID 0000.0001) %MON advcfl_vvel_max              =   1.5885932361680E-02
(PID.TID 0000.0001) %MON advcfl_wvel_max              =   9.7585906917645E-02
(PID.TID 0000.0001) %MON advcfl_W_hf_max              =   1.0029568549004E-01
(PID.TID 0000.0001) %MON pe_b_mean                    =   3.2640065530995E-04
(PID.TID 0000.0001) %MON ke_max                       =   2.0830617149912E-02
(PID.TID 0000.0001) %MON ke_mean                      =   1.9846585925822E-04
(PID.TID 0000.0001) %MON ke_vol                       =   1.3226782436723E+18
(PID.TID 0000.0001) %MON vort_r_min                   =  -4.7095133754213E-07
(PID.TID 0000.0001) %MON vort_r_max                   =   4.2885863593718E-07
(PID.TID 0000.0001) %MON vort_a_mean                  =  -2.5205769092079E-05
(PID.TID 0000.0001) %MON vort_a_sd                    =   7.3403446090678E-05
(PID.TID 0000.0001) %MON vort_p_mean                  =  -3.1758669177763E-05
(PID.TID 0000.0001) %MON vort_p_sd                    =   1.3126413775552E-04
(PID.TID 0000.0001) %MON surfExpan_theta_mean         =   7.6540063071342E-06
(PID.TID 0000.0001) %MON surfExpan_salt_mean          =  -5.5936738435997E-08
(PID.TID 0000.0001) // =======================================================
(PID.TID 0000.0001) // End MONITOR dynamic field statistics
(PID.TID 0000.0001) // =======================================================
time,SST,SSS,fu,fv,Q,E-P,i0,i1,a,b =   4.7952E+06 -4.1007E-01  3.4476E+01 -1.8902E-02 -1.1665E-02  2.3170E+02  0.0000E+00     2     3  3.5000E-01  6.5000E-01
time,fu0,fu1,fu =   4.7952E+06 -1.4435E-02 -2.7199E-02 -1.8902E-02  3.500000000000000E-01  6.500000000000000E-01
 cg2d: Sum(rhs),rhsMax =   2.35469976850311E-12  8.87885337906463E+00
(PID.TID 0000.0001)                    cg2d_init_res =    2.93359638074258E-01
(PID.TID 0000.0001)                       cg2d_iters =    24
(PID.TID 0000.0001)                         cg2d_res =    6.38331832948574E-14
(PID.TID 0000.0001) // =======================================================
(PID.TID 0000.0001) // Begin MONITOR dynamic field statistics
(PID.TID 0000.0001) // =======================================================
(PID.TID 0000.0001) %MON time_tsnumber                =                   112
(PID.TID 0000.0001) %MON time_secondsf                =   4.8384000000000E+06
(PID.TID 0000.0001) %MON dynstat_eta_max              =   9.8652996649521E-01
(PID.TID 0000.0001) %MON dynstat_eta_min              =  -1.5667112050205E+00
(PID.TID 0000.0001) %MON dynstat_eta_mean             =  -1.3970707092259E-15
(PID.TID 0000.0001) %MON dynstat_eta_sd               =   5.0668302105071E-01
(PID.TID 0000.0001) %MON dynstat_eta_del2             =   2.6844201286375E-02
(PID.TID 0000.0001) %MON dynstat_uvel_max             =   1.9743111886239E-01
(PID.TID 0000.0001) %MON dynstat_uvel_min             =  -1.3180308777917E-01
(PID.TID 0000.0001) %MON dynstat_uvel_mean            =   1.2087650799717E-03
(PID.TID 0000.0001) %MON dynstat_uvel_sd              =   1.5853945320554E-02
(PID.TID 0000.0001) %MON dynstat_uvel_del2            =   3.4133547240618E-03
(PID.TID 0000.0001) %MON dynstat_vvel_max             =   1.6419433367378E-01
(PID.TID 0000.0001) %MON dynstat_vvel_min             =  -1.3424762169073E-01
(PID.TID 0000.0001) %MON dynstat_vvel_mean            =   1.3118447148767E-03
(PID.TID 0000.0001) %MON dynstat_vvel_sd              =   1.3664645738241E-02
(PID.TID 0000.0001) %MON dynstat_vvel_del2            =   3.3477467344074E-03
(PID.TID 0000.0001) %MON dynstat_wvel_max             =   1.5604425649082E-04
(PID.TID 0000.0001) %MON dynstat_wvel_min             =  -2.1300776379804E-04
(PID.TID 0000.0001) %MON dynstat_wvel_mean            =   1.6937770703154E-22
(PID.TID 0000.0001) %MON dynstat_wvel_sd              =   1.7853772151435E-05
(PID.TID 0000.0001) %MON dynstat_wvel_del2            =   5.7990434600704E-06
(PID.TID 0000.0001) %MON dynstat_theta_max            =   2.9744270880417E+01
(PID.TID 0000.0001) %MON dynstat_theta_min            =  -1.9987457951672E+00
(PID.TID 0000.0001) %MON dynstat_theta_mean           =   3.5863780882439E+00
(PID.TID 0000.0001) %MON dynstat_theta_sd             =   4.3370706987457E+00
(PID.TID 0000.0001) %MON dynstat_theta_del2           =   1.3965684189597E-01
(PID.TID 0000.0001) %MON dynstat_salt_max             =   3.7381002863118E+01
(PID.TID 0000.0001) %MON dynstat_salt_min             =   2.9884796423217E+01
(PID.TID 0000.0001) %MON dynstat_salt_mean            =   3.4715915807098E+01
(PID.TID 0000.0001) %MON dynstat_salt_sd              =   2.9522079546766E-01
(PID.TID 0000.0001) %MON dynstat_salt_del2            =   2.5104755339948E-02
(PID.TID 0000.0001) %MON dynstat_sst_max              =   2.9744270880417E+01
(PID.TID 0000.0001) %MON dynstat_sst_min              =  -1.9185137191480E+00
(PID.TID 0000.0001) %MON dynstat_sst_mean             =   1.8703438192934E+01
(PID.TID 0000.0001) %MON dynstat_sst_sd               =   8.9560389980814E+00
(PID.TID 0000.0001) %MON dynstat_sst_del2             =   2.6552080772988E-01
(PID.TID 0000.0001) %MON dynstat_sss_max              =   3.7381002190644E+01
(PID.TID 0000.0001) %MON dynstat_sss_min              =   2.9884796423217E+01
(PID.TID 0000.0001) %MON dynstat_sss_mean             =   3.4837945632485E+01
(PID.TID 0000.0001) %MON dynstat_sss_sd               =   9.5415074696432E-01
(PID.TID 0000.0001) %MON dynstat_sss_del2             =   7.7421380259266E-02
(PID.TID 0000.0001) %MON extforcing_qnet_max          =   3.2907164764404E+02
(PID.TID 0000.0001) %MON extforcing_qnet_min          =  -1.6969153671265E+02
(PID.TID 0000.0001) %MON extforcing_qnet_mean         =  -1.1620186232864E+01
(PID.TID 0000.0001) %MON extforcing_qnet_sd           =   6.5329702783960E+01
(PID.TID 0000.0001) %MON extforcing_qnet_del2         =   8.0171068176676E+00
(PID.TID 0000.0001) %MON extforcing_qsw_max           =   0.0000000000000E+00
(PID.TID 0000.0001) %MON extforcing_qsw_min           =   0.0000000000000E+00
(PID.TID 0000.0001) %MON extforcing_qsw_mean          =   0.0000000000000E+00
(PID.TID 0000.0001) %MON extforcing_qsw_sd            =   0.0000000000000E+00
(PID.TID 0000.0001) %MON extforcing_qsw_del2          =   0.0000000000000E+00
(PID.TID 0000.0001) %MON extforcing_empmr_max         =   0.0000000000000E+00
(PID.TID 0000.0001) %MON extforcing_empmr_min         =   0.0000000000000E+00
(PID.TID 0000.0001) %MON extforcing_empmr_mean        =   0.0000000000000E+00
(PID.TID 0000.0001) %MON extforcing_empmr_sd          =   0.0000000000000E+00
(PID.TID 0000.0001) %MON extforcing_empmr_del2        =   0.0000000000000E+00
(PID.TID 0000.0001) %MON extforcing_fu_max            =   3.1969379037619E-01
(PID.TID 0000.0001) %MON extforcing_fu_min            =  -2.7227096036077E-01
(PID.TID 0000.0001) %MON extforcing_fu_mean           =   1.8619837305949E-02
(PID.TID 0000.0001) %MON extforcing_fu_sd             =   9.4135947702940E-02
(PID.TID 0000.0001) %MON extforcing_fu_del2           =   8.0208451575378E-03
(PID.TID 0000.0001) %MON extforcing_fv_max            =   1.5780184268951E-01
(PID.TID 0000.0001) %MON extforcing_fv_min            =  -1.8407587558031E-01
(PID.TID 0000.0001) %MON extforcing_fv_mean           =  -7.3262226156398E-03
(PID.TID 0000.0001) %MON extforcing_fv_sd             =   4.2453342849657E-02
(PID.TID 0000.0001) %MON extforcing_fv_del2           =   4.6175031728017E-03
(PID.TID 0000.0001) %MON advcfl_uvel_max              =   3.2629008494937E-02
(PID.TID 0000.0001) %MON advcfl_vvel_max              =   1.5950162836150E-02
(PID.TID 0000.0001) %MON advcfl_wvel_max              =   9.5411881621539E-02
(PID.TID 0000.0001) %MON advcfl_W_hf_max              =   9.8007821528562E-02
(PID.TID 0000.0001) %MON pe_b_mean                    =   3.2851401556354E-04
(PID.TID 0000.0001) %MON ke_max                       =   2.0718052871695E-02
(PID.TID 0000.0001) %MON ke_mean                      =   1.9945535534803E-04
(PID.TID 0000.0001) %MON ke_vol                       =   1.3226782436723E+18
(PID.TID 0000.0001) %MON vort_r_min                   =  -4.7401400757980E-07
(PID.TID 0000.0001) %MON vort_r_max                   =   4.3845606461118E-07
(PID.TID 0000.0001) %MON vort_a_mean                  =  -2.5205769097599E-05
(PID.TID 0000.0001) %MON vort_a_sd                    =   7.3403447734180E-05
(PID.TID 0000.0001) %MON vort_p_mean                  =  -3.1758669184718E-05
(PID.TID 0000.0001) %MON vort_p_sd                    =   1.3126414579257E-04
(PID.TID 0000.0001) %MON surfExpan_theta_mean         =   7.0474406374028E-06
(PID.TID 0000.0001) %MON surfExpan_salt_mean          =  -1.1831904362359E-07
(PID.TID 0000.0001) // =======================================================
(PID.TID 0000.0001) // End MONITOR dynamic field statistics
(PID.TID 0000.0001) // =======================================================
time,SST,SSS,fu,fv,Q,E-P,i0,i1,a,b =   4.8384E+06 -4.0427E-01  3.4479E+01 -1.9115E-02 -1.1381E-02  2.3128E+02  0.0000E+00     2     3  3.6667E-01  6.3333E-01
time,fu0,fu1,fu =   4.8384E+06 -1.4435E-02 -2.7199E-02 -1.9115E-02  3.666666666666666E-01  6.333333333333333E-01
 cg2d: Sum(rhs),rhsMax =   2.41678899115527E-12  8.83905900826770E+00
(PID.TID 0000.0001)                    cg2d_init_res =    2.89634683318881E-01
(PID.TID 0000.0001)                       cg2d_iters =    24
(PID.TID 0000.0001)                         cg2d_res =    6.32257539438344E-14
(PID.TID 0000.0001) // =======================================================
(PID.TID 0000.0001) // Begin MONITOR dynamic field statistics
(PID.TID 0000.0001) // =======================================================
(PID.TID 0000.0001) %MON time_tsnumber                =                   113
(PID.TID 0000.0001) %MON time_secondsf                =   4.8816000000000E+06
(PID.TID 0000.0001) %MON dynstat_eta_max              =   9.8174765985316E-01
(PID.TID 0000.0001) %MON dynstat_eta_min              =  -1.5666278126880E+00
(PID.TID 0000.0001) %MON dynstat_eta_mean             =  -1.0826381747694E-15
(PID.TID 0000.0001) %MON dynstat_eta_sd               =   5.0829500206668E-01
(PID.TID 0000.0001) %MON dynstat_eta_del2             =   2.6888388212333E-02
(PID.TID 0000.0001) %MON dynstat_uvel_max             =   1.9268668311355E-01
(PID.TID 0000.0001) %MON dynstat_uvel_min             =  -1.3205773447174E-01
(PID.TID 0000.0001) %MON dynstat_uvel_mean            =   1.2297068064121E-03
(PID.TID 0000.0001) %MON dynstat_uvel_sd              =   1.5926756705107E-02
(PID.TID 0000.0001) %MON dynstat_uvel_del2            =   3.4169600478975E-03
(PID.TID 0000.0001) %MON dynstat_vvel_max             =   1.6468576890297E-01
(PID.TID 0000.0001) %MON dynstat_vvel_min             =  -1.3371341931951E-01
(PID.TID 0000.0001) %MON dynstat_vvel_mean            =   1.3590073473587E-03
(PID.TID 0000.0001) %MON dynstat_vvel_sd              =   1.3629471613869E-02
(PID.TID 0000.0001) %MON dynstat_vvel_del2            =   3.3431192231461E-03
(PID.TID 0000.0001) %MON dynstat_wvel_max             =   1.5679923237586E-04
(PID.TID 0000.0001) %MON dynstat_wvel_min             =  -2.0996334505570E-04
(PID.TID 0000.0001) %MON dynstat_wvel_mean            =   2.4338368871442E-22
(PID.TID 0000.0001) %MON dynstat_wvel_sd              =   1.7819224845671E-05
(PID.TID 0000.0001) %MON dynstat_wvel_del2            =   5.7799774032427E-06
(PID.TID 0000.0001) %MON dynstat_theta_max            =   2.9748090091299E+01
(PID.TID 0000.0001) %MON dynstat_theta_min            =  -1.9977115933023E+00
(PID.TID 0000.0001) %MON dynstat_theta_mean           =   3.5863320905106E+00
(PID.TID 0000.0001) %MON dynstat_theta_sd             =   4.3371148683715E+00
(PID.TID 0000.0001) %MON dynstat_theta_del2           =   1.3966756358743E-01
(PID.TID 0000.0001) %MON dynstat_salt_max             =   3.7380860298394E+01
(PID.TID 0000.0001) %MON dynstat_salt_min             =   2.9884417232991E+01
(PID.TID 0000.0001) %MON dynstat_salt_mean            =   3.4715917964232E+01
(PID.TID 0000.0001) %MON dynstat_salt_sd              =   2.9519173477197E-01
(PID.TID 0000.0001) %MON dynstat_salt_del2            =   2.5096739368158E-02
(PID.TID 0000.0001) %MON dynstat_sst_max              =   2.9748090091299E+01
(PID.TID 0000.0001) %MON dynstat_sst_min              =  -1.9183119497682E+00
(PID.TID 0000.0001) %MON dynstat_sst_mean             =   1.8706483841872E+01
(PID.TID 0000.0001) %MON dynstat_sst_sd               =   8.9592055938878E+00
(PID.TID 0000.0001) %MON dynstat_sst_del2             =   2.6555150719063E-01
(PID.TID 0000.0001) %MON dynstat_sss_max              =   3.7380859649869E+01
(PID.TID 0000.0001) %MON dynstat_sss_min              =   2.9884417232991E+01
(PID.TID 0000.0001) %MON dynstat_sss_mean             =   3.4838011245811E+01
(PID.TID 0000.0001) %MON dynstat_sss_sd               =   9.5401353184135E-01
(PID.TID 0000.0001) %MON dynstat_sss_del2             =   7.7388783652286E-02
(PID.TID 0000.0001) %MON extforcing_qnet_max          =   3.2767257181803E+02
(PID.TID 0000.0001) %MON extforcing_qnet_min          =  -1.6954189707438E+02
(PID.TID 0000.0001) %MON extforcing_qnet_mean         =  -1.1508516483050E+01
(PID.TID 0000.0001) %MON extforcing_qnet_sd           =   6.4697646918086E+01
(PID.TID 0000.0001) %MON extforcing_qnet_del2         =   7.9986729272894E+00
(PID.TID 0000.0001) %MON extforcing_qsw_max           =   0.0000000000000E+00
(PID.TID 0000.0001) %MON extforcing_qsw_min           =   0.0000000000000E+00
(PID.TID 0000.0001) %MON extforcing_qsw_mean          =   0.0000000000000E+00
(PID.TID 0000.0001) %MON extforcing_qsw_sd            =   0.0000000000000E+00
(PID.TID 0000.0001) %MON extforcing_qsw_del2          =   0.0000000000000E+00
(PID.TID 0000.0001) %MON extforcing_empmr_max         =   0.0000000000000E+00
(PID.TID 0000.0001) %MON extforcing_empmr_min         =   0.0000000000000E+00
(PID.TID 0000.0001) %MON extforcing_empmr_mean        =   0.0000000000000E+00
(PID.TID 0000.0001) %MON extforcing_empmr_sd          =   0.0000000000000E+00
(PID.TID 0000.0001) %MON extforcing_empmr_del2        =   0.0000000000000E+00
(PID.TID 0000.0001) %MON extforcing_fu_max            =   3.2066449820995E-01
(PID.TID 0000.0001) %MON extforcing_fu_min            =  -2.7496327509483E-01
(PID.TID 0000.0001) %MON extforcing_fu_mean           =   1.8666937100678E-02
(PID.TID 0000.0001) %MON extforcing_fu_sd             =   9.4247901717010E-02
(PID.TID 0000.0001) %MON extforcing_fu_del2           =   8.0347615774993E-03
(PID.TID 0000.0001) %MON extforcing_fv_max            =   1.5726317167282E-01
(PID.TID 0000.0001) %MON extforcing_fv_min            =  -1.8333285748959E-01
(PID.TID 0000.0001) %MON extforcing_fv_mean           =  -7.3314367906246E-03
(PID.TID 0000.0001) %MON extforcing_fv_sd             =   4.2374687785746E-02
(PID.TID 0000.0001) %MON extforcing_fv_del2           =   4.6072637396422E-03
(PID.TID 0000.0001) %MON advcfl_uvel_max              =   3.1844905992532E-02
(PID.TID 0000.0001) %MON advcfl_vvel_max              =   1.5997901827830E-02
(PID.TID 0000.0001) %MON advcfl_wvel_max              =   9.1315068833833E-02
(PID.TID 0000.0001) %MON advcfl_W_hf_max              =   9.3817213912532E-02
(PID.TID 0000.0001) %MON pe_b_mean                    =   3.3060763509796E-04
(PID.TID 0000.0001) %MON ke_max                       =   2.0456920452022E-02
(PID.TID 0000.0001) %MON ke_mean                      =   2.0015538303524E-04
(PID.TID 0000.0001) %MON ke_vol                       =   1.3226782436723E+18
(PID.TID 0000.0001) %MON vort_r_min                   =  -4.7765498318878E-07
(PID.TID 0000.0001) %MON vort_r_max                   =   4.4661920189796E-07
(PID.TID 0000.0001) %MON vort_a_mean                  =  -2.5205769102085E-05
(PID.TID 0000.0001) %MON vort_a_sd                    =   7.3403449550138E-05
(PID.TID 0000.0001) %MON vort_p_mean                  =  -3.1758669190370E-05
(PID.TID 0000.0001) %MON vort_p_sd                    =   1.3126414459651E-04
(PID.TID 0000.0001) %MON surfExpan_theta_mean         =   6.4571254343202E-06
(PID.TID 0000.0001) %MON surfExpan_salt_mean          =  -1.8075895249005E-07
(PID.TID 0000.0001) // =======================================================
(PID.TID 0000.0001) // End MONITOR dynamic field statistics
(PID.TID 0000.0001) // =======================================================
time,SST,SSS,fu,fv,Q,E-P,i0,i1,a,b =   4.8816E+06 -3.9848E-01  3.4482E+01 -1.9328E-02 -1.1097E-02  2.3087E+02  0.0000E+00     2     3  3.8333E-01  6.1667E-01
time,fu0,fu1,fu =   4.8816E+06 -1.4435E-02 -2.7199E-02 -1.9328E-02  3.833333333333334E-01  6.166666666666667E-01
 cg2d: Sum(rhs),rhsMax =   2.50901383003210E-12  8.78807252840712E+00
(PID.TID 0000.0001)                    cg2d_init_res =    2.84691496060503E-01
(PID.TID 0000.0001)                       cg2d_iters =    24
(PID.TID 0000.0001)                         cg2d_res =    6.21983576422035E-14
(PID.TID 0000.0001) // =======================================================
(PID.TID 0000.0001) // Begin MONITOR dynamic field statistics
(PID.TID 0000.0001) // =======================================================
(PID.TID 0000.0001) %MON time_tsnumber                =                   114
(PID.TID 0000.0001) %MON time_secondsf                =   4.9248000000000E+06
(PID.TID 0000.0001) %MON dynstat_eta_max              =   9.7603546883949E-01
(PID.TID 0000.0001) %MON dynstat_eta_min              =  -1.5659956598816E+00
(PID.TID 0000.0001) %MON dynstat_eta_mean             =  -1.6385854042974E-15
(PID.TID 0000.0001) %MON dynstat_eta_sd               =   5.0988064893840E-01
(PID.TID 0000.0001) %MON dynstat_eta_del2             =   2.6915940260009E-02
(PID.TID 0000.0001) %MON dynstat_uvel_max             =   1.8675110803344E-01
(PID.TID 0000.0001) %MON dynstat_uvel_min             =  -1.3226782330378E-01
(PID.TID 0000.0001) %MON dynstat_uvel_mean            =   1.2487032447393E-03
(PID.TID 0000.0001) %MON dynstat_uvel_sd              =   1.5982235843069E-02
(PID.TID 0000.0001) %MON dynstat_uvel_del2            =   3.4183472553781E-03
(PID.TID 0000.0001) %MON dynstat_vvel_max             =   1.6500411638958E-01
(PID.TID 0000.0001) %MON dynstat_vvel_min             =  -1.3292439326698E-01
(PID.TID 0000.0001) %MON dynstat_vvel_mean            =   1.4001514417942E-03
(PID.TID 0000.0001) %MON dynstat_vvel_sd              =   1.3591389637831E-02
(PID.TID 0000.0001) %MON dynstat_vvel_del2            =   3.3409750029202E-03
(PID.TID 0000.0001) %MON dynstat_wvel_max             =   1.5735712494482E-04
(PID.TID 0000.0001) %MON dynstat_wvel_min             =  -2.0622640610130E-04
(PID.TID 0000.0001) %MON dynstat_wvel_mean            =   7.8948888564230E-23
(PID.TID 0000.0001) %MON dynstat_wvel_sd              =   1.7784698131326E-05
(PID.TID 0000.0001) %MON dynstat_wvel_del2            =   5.7639799485420E-06
(PID.TID 0000.0001) %MON dynstat_theta_max            =   2.9751681681448E+01
(PID.TID 0000.0001) %MON dynstat_theta_min            =  -1.9966263869192E+00
(PID.TID 0000.0001) %MON dynstat_theta_mean           =   3.5862921842956E+00
(PID.TID 0000.0001) %MON dynstat_theta_sd             =   4.3371781805306E+00
(PID.TID 0000.0001) %MON dynstat_theta_del2           =   1.3966966538114E-01
(PID.TID 0000.0001) %MON dynstat_salt_max             =   3.7380702605701E+01
(PID.TID 0000.0001) %MON dynstat_salt_min             =   2.9884106609201E+01
(PID.TID 0000.0001) %MON dynstat_salt_mean            =   3.4715920821921E+01
(PID.TID 0000.0001) %MON dynstat_salt_sd              =   2.9516111327761E-01
(PID.TID 0000.0001) %MON dynstat_salt_del2            =   2.5088556740557E-02
(PID.TID 0000.0001) %MON dynstat_sst_max              =   2.9751681681448E+01
(PID.TID 0000.0001) %MON dynstat_sst_min              =  -1.9181654514231E+00
(PID.TID 0000.0001) %MON dynstat_sst_mean             =   1.8709665064249E+01
(PID.TID 0000.0001) %MON dynstat_sst_sd               =   8.9624121871346E+00
(PID.TID 0000.0001) %MON dynstat_sst_del2             =   2.6551891402270E-01
(PID.TID 0000.0001) %MON dynstat_sss_max              =   3.7380701982848E+01
(PID.TID 0000.0001) %MON dynstat_sss_min              =   2.9884106609201E+01
(PID.TID 0000.0001) %MON dynstat_sss_mean             =   3.4838140834485E+01
(PID.TID 0000.0001) %MON dynstat_sss_sd               =   9.5384151735705E-01
(PID.TID 0000.0001) %MON dynstat_sss_del2             =   7.7297201526316E-02
(PID.TID 0000.0001) %MON extforcing_qnet_max          =   3.2627349599202E+02
(PID.TID 0000.0001) %MON extforcing_qnet_min          =  -1.6939225743612E+02
(PID.TID 0000.0001) %MON extforcing_qnet_mean         =  -1.1396846733237E+01
(PID.TID 0000.0001) %MON extforcing_qnet_sd           =   6.4070924996161E+01
(PID.TID 0000.0001) %MON extforcing_qnet_del2         =   7.9806335607904E+00
(PID.TID 0000.0001) %MON extforcing_qsw_max           =   0.0000000000000E+00
(PID.TID 0000.0001) %MON extforcing_qsw_min           =   0.0000000000000E+00
(PID.TID 0000.0001) %MON extforcing_qsw_mean          =   0.0000000000000E+00
(PID.TID 0000.0001) %MON extforcing_qsw_sd            =   0.0000000000000E+00
(PID.TID 0000.0001) %MON extforcing_qsw_del2          =   0.0000000000000E+00
(PID.TID 0000.0001) %MON extforcing_empmr_max         =   0.0000000000000E+00
(PID.TID 0000.0001) %MON extforcing_empmr_min         =   0.0000000000000E+00
(PID.TID 0000.0001) %MON extforcing_empmr_mean        =   0.0000000000000E+00
(PID.TID 0000.0001) %MON extforcing_empmr_sd          =   0.0000000000000E+00
(PID.TID 0000.0001) %MON extforcing_empmr_del2        =   0.0000000000000E+00
(PID.TID 0000.0001) %MON extforcing_fu_max            =   3.2163520604372E-01
(PID.TID 0000.0001) %MON extforcing_fu_min            =  -2.7765558982889E-01
(PID.TID 0000.0001) %MON extforcing_fu_mean           =   1.8714036895407E-02
(PID.TID 0000.0001) %MON extforcing_fu_sd             =   9.4365067366221E-02
(PID.TID 0000.0001) %MON extforcing_fu_del2           =   8.0500528426094E-03
(PID.TID 0000.0001) %MON extforcing_fv_max            =   1.5672450065613E-01
(PID.TID 0000.0001) %MON extforcing_fv_min            =  -1.8258983939886E-01
(PID.TID 0000.0001) %MON extforcing_fv_mean           =  -7.3366509656093E-03
(PID.TID 0000.0001) %MON extforcing_fv_sd             =   4.2300351733126E-02
(PID.TID 0000.0001) %MON extforcing_fv_del2           =   4.5990463369105E-03
(PID.TID 0000.0001) %MON advcfl_uvel_max              =   3.0863946502322E-02
(PID.TID 0000.0001) %MON advcfl_vvel_max              =   1.6028826733314E-02
(PID.TID 0000.0001) %MON advcfl_wvel_max              =   8.5428712292480E-02
(PID.TID 0000.0001) %MON advcfl_W_hf_max              =   8.7856595371604E-02
(PID.TID 0000.0001) %MON pe_b_mean                    =   3.3267354026665E-04
(PID.TID 0000.0001) %MON ke_max                       =   2.0054742172650E-02
(PID.TID 0000.0001) %MON ke_mean                      =   2.0056661861177E-04
(PID.TID 0000.0001) %MON ke_vol                       =   1.3226782436723E+18
(PID.TID 0000.0001) %MON vort_r_min                   =  -4.8182441856025E-07
(PID.TID 0000.0001) %MON vort_r_max                   =   4.5313793442102E-07
(PID.TID 0000.0001) %MON vort_a_mean                  =  -2.5205769105364E-05
(PID.TID 0000.0001) %MON vort_a_sd                    =   7.3403451355780E-05
(PID.TID 0000.0001) %MON vort_p_mean                  =  -3.1758669194501E-05
(PID.TID 0000.0001) %MON vort_p_sd                    =   1.3126413341147E-04
(PID.TID 0000.0001) %MON surfExpan_theta_mean         =   5.8940632318912E-06
(PID.TID 0000.0001) %MON surfExpan_salt_mean          =  -2.4118282572666E-07
(PID.TID 0000.0001) // =======================================================
(PID.TID 0000.0001) // End MONITOR dynamic field statistics
(PID.TID 0000.0001) // =======================================================
time,SST,SSS,fu,fv,Q,E-P,i0,i1,a,b =   4.9248E+06 -3.9268E-01  3.4484E+01 -1.9540E-02 -1.0813E-02  2.3045E+02  0.0000E+00     2     3  4.0000E-01  6.0000E-01
time,fu0,fu1,fu =   4.9248E+06 -1.4435E-02 -2.7199E-02 -1.9540E-02  4.000000000000000E-01  6.000000000000000E-01
 cg2d: Sum(rhs),rhsMax =   2.74236189312660E-12  8.72810172445269E+00
(PID.TID 0000.0001)                    cg2d_init_res =    2.78853634861072E-01
(PID.TID 0000.0001)                       cg2d_iters =    24
(PID.TID 0000.0001)                         cg2d_res =    6.07472053531378E-14
(PID.TID 0000.0001) // =======================================================
(PID.TID 0000.0001) // Begin MONITOR dynamic field statistics
(PID.TID 0000.0001) // =======================================================
(PID.TID 0000.0001) %MON time_tsnumber                =                   115
(PID.TID 0000.0001) %MON time_secondsf                =   4.9680000000000E+06
(PID.TID 0000.0001) %MON dynstat_eta_max              =   9.6946722604441E-01
(PID.TID 0000.0001) %MON dynstat_eta_min              =  -1.5646716919937E+00
(PID.TID 0000.0001) %MON dynstat_eta_mean             =  -1.3616377051856E-15
(PID.TID 0000.0001) %MON dynstat_eta_sd               =   5.1143329566811E-01
(PID.TID 0000.0001) %MON dynstat_eta_del2             =   2.6937970693733E-02
(PID.TID 0000.0001) %MON dynstat_uvel_max             =   1.8213793534630E-01
(PID.TID 0000.0001) %MON dynstat_uvel_min             =  -1.3243576341477E-01
(PID.TID 0000.0001) %MON dynstat_uvel_mean            =   1.2650008479221E-03
(PID.TID 0000.0001) %MON dynstat_uvel_sd              =   1.6021658916363E-02
(PID.TID 0000.0001) %MON dynstat_uvel_del2            =   3.4184470016174E-03
(PID.TID 0000.0001) %MON dynstat_vvel_max             =   1.6514694176296E-01
(PID.TID 0000.0001) %MON dynstat_vvel_min             =  -1.3189410712616E-01
(PID.TID 0000.0001) %MON dynstat_vvel_mean            =   1.4355320641663E-03
(PID.TID 0000.0001) %MON dynstat_vvel_sd              =   1.3549789389488E-02
(PID.TID 0000.0001) %MON dynstat_vvel_del2            =   3.3396542034972E-03
(PID.TID 0000.0001) %MON dynstat_wvel_max             =   1.5769046186330E-04
(PID.TID 0000.0001) %MON dynstat_wvel_min             =  -2.0186711895486E-04
(PID.TID 0000.0001) %MON dynstat_wvel_mean            =  -1.0714983524922E-22
(PID.TID 0000.0001) %MON dynstat_wvel_sd              =   1.7749909258978E-05
(PID.TID 0000.0001) %MON dynstat_wvel_del2            =   5.7510731797379E-06
(PID.TID 0000.0001) %MON dynstat_theta_max            =   2.9754937489111E+01
(PID.TID 0000.0001) %MON dynstat_theta_min            =  -1.9954791735368E+00
(PID.TID 0000.0001) %MON dynstat_theta_mean           =   3.5862579576981E+00
(PID.TID 0000.0001) %MON dynstat_theta_sd             =   4.3372589547690E+00
(PID.TID 0000.0001) %MON dynstat_theta_del2           =   1.3968005986792E-01
(PID.TID 0000.0001) %MON dynstat_salt_max             =   3.7380524345920E+01
(PID.TID 0000.0001) %MON dynstat_salt_min             =   2.9883873806863E+01
(PID.TID 0000.0001) %MON dynstat_salt_mean            =   3.4715924339704E+01
(PID.TID 0000.0001) %MON dynstat_salt_sd              =   2.9513085062150E-01
(PID.TID 0000.0001) %MON dynstat_salt_del2            =   2.5082771775014E-02
(PID.TID 0000.0001) %MON dynstat_sst_max              =   2.9754937489111E+01
(PID.TID 0000.0001) %MON dynstat_sst_min              =  -1.9180538989487E+00
(PID.TID 0000.0001) %MON dynstat_sst_mean             =   1.8712509194453E+01
(PID.TID 0000.0001) %MON dynstat_sst_sd               =   8.9659634295342E+00
(PID.TID 0000.0001) %MON dynstat_sst_del2             =   2.6560999782929E-01
(PID.TID 0000.0001) %MON dynstat_sss_max              =   3.7380523749912E+01
(PID.TID 0000.0001) %MON dynstat_sss_min              =   2.9883873806863E+01
(PID.TID 0000.0001) %MON dynstat_sss_mean             =   3.4838219807826E+01
(PID.TID 0000.0001) %MON dynstat_sss_sd               =   9.5370740318995E-01
(PID.TID 0000.0001) %MON dynstat_sss_del2             =   7.7274601774808E-02
(PID.TID 0000.0001) %MON extforcing_qnet_max          =   3.2487442016602E+02
(PID.TID 0000.0001) %MON extforcing_qnet_min          =  -1.6924261779785E+02
(PID.TID 0000.0001) %MON extforcing_qnet_mean         =  -1.1285176983424E+01
(PID.TID 0000.0001) %MON extforcing_qnet_sd           =   6.3449695075861E+01
(PID.TID 0000.0001) %MON extforcing_qnet_del2         =   7.9634644050530E+00
(PID.TID 0000.0001) %MON extforcing_qsw_max           =   0.0000000000000E+00
(PID.TID 0000.0001) %MON extforcing_qsw_min           =   0.0000000000000E+00
(PID.TID 0000.0001) %MON extforcing_qsw_mean          =   0.0000000000000E+00
(PID.TID 0000.0001) %MON extforcing_qsw_sd            =   0.0000000000000E+00
(PID.TID 0000.0001) %MON extforcing_qsw_del2          =   0.0000000000000E+00
(PID.TID 0000.0001) %MON extforcing_empmr_max         =   0.0000000000000E+00
(PID.TID 0000.0001) %MON extforcing_empmr_min         =   0.0000000000000E+00
(PID.TID 0000.0001) %MON extforcing_empmr_mean        =   0.0000000000000E+00
(PID.TID 0000.0001) %MON extforcing_empmr_sd          =   0.0000000000000E+00
(PID.TID 0000.0001) %MON extforcing_empmr_del2        =   0.0000000000000E+00
(PID.TID 0000.0001) %MON extforcing_fu_max            =   3.2260591387749E-01
(PID.TID 0000.0001) %MON extforcing_fu_min            =  -2.8034790456295E-01
(PID.TID 0000.0001) %MON extforcing_fu_mean           =   1.8761136690137E-02
(PID.TID 0000.0001) %MON extforcing_fu_sd             =   9.4487425263087E-02
(PID.TID 0000.0001) %MON extforcing_fu_del2           =   8.0666204455458E-03
(PID.TID 0000.0001) %MON extforcing_fv_max            =   1.5618582963943E-01
(PID.TID 0000.0001) %MON extforcing_fv_min            =  -1.8184682130814E-01
(PID.TID 0000.0001) %MON extforcing_fv_mean           =  -7.3418651405940E-03
(PID.TID 0000.0001) %MON extforcing_fv_sd             =   4.2230357499442E-02
(PID.TID 0000.0001) %MON extforcing_fv_del2           =   4.5918399264266E-03
(PID.TID 0000.0001) %MON advcfl_uvel_max              =   2.9707478399476E-02
(PID.TID 0000.0001) %MON advcfl_vvel_max              =   1.6042701073016E-02
(PID.TID 0000.0001) %MON advcfl_wvel_max              =   7.7925567266344E-02
(PID.TID 0000.0001) %MON advcfl_W_hf_max              =   8.0297506314852E-02
(PID.TID 0000.0001) %MON pe_b_mean                    =   3.3470268541828E-04
(PID.TID 0000.0001) %MON ke_max                       =   1.9520623246648E-02
(PID.TID 0000.0001) %MON ke_mean                      =   2.0069658474643E-04
(PID.TID 0000.0001) %MON ke_vol                       =   1.3226782436723E+18
(PID.TID 0000.0001) %MON vort_r_min                   =  -4.8645557776612E-07
(PID.TID 0000.0001) %MON vort_r_max                   =   4.5786011972439E-07
(PID.TID 0000.0001) %MON vort_a_mean                  =  -2.5205769107311E-05
(PID.TID 0000.0001) %MON vort_a_sd                    =   7.3403452976840E-05
(PID.TID 0000.0001) %MON vort_p_mean                  =  -3.1758669196955E-05
(PID.TID 0000.0001) %MON vort_p_sd                    =   1.3126411178124E-04
(PID.TID 0000.0001) %MON surfExpan_theta_mean         =   5.3558543324081E-06
(PID.TID 0000.0001) %MON surfExpan_salt_mean          =  -3.0092255940056E-07
(PID.TID 0000.0001) // =======================================================
(PID.TID 0000.0001) // End MONITOR dynamic field statistics
(PID.TID 0000.0001) // =======================================================
time,SST,SSS,fu,fv,Q,E-P,i0,i1,a,b =   4.9680E+06 -3.8688E-01  3.4487E+01 -1.9753E-02 -1.0528E-02  2.3003E+02  0.0000E+00     2     3  4.1667E-01  5.8333E-01
time,fu0,fu1,fu =   4.9680E+06 -1.4435E-02 -2.7199E-02 -1.9753E-02  4.166666666666667E-01  5.833333333333333E-01
 cg2d: Sum(rhs),rhsMax =   1.63478952597274E-12  8.66161341629478E+00
(PID.TID 0000.0001)                    cg2d_init_res =    2.72530533228431E-01
(PID.TID 0000.0001)                       cg2d_iters =    24
(PID.TID 0000.0001)                         cg2d_res =    5.89488949772221E-14
(PID.TID 0000.0001) // =======================================================
(PID.TID 0000.0001) // Begin MONITOR dynamic field statistics
(PID.TID 0000.0001) // =======================================================
(PID.TID 0000.0001) %MON time_tsnumber                =                   116
(PID.TID 0000.0001) %MON time_secondsf                =   5.0112000000000E+06
(PID.TID 0000.0001) %MON dynstat_eta_max              =   9.6214955839515E-01
(PID.TID 0000.0001) %MON dynstat_eta_min              =  -1.5625012753261E+00
(PID.TID 0000.0001) %MON dynstat_eta_mean             =  -1.2642889227192E-15
(PID.TID 0000.0001) %MON dynstat_eta_sd               =   5.1294628662835E-01
(PID.TID 0000.0001) %MON dynstat_eta_del2             =   2.6947218858297E-02
(PID.TID 0000.0001) %MON dynstat_uvel_max             =   1.7989538315219E-01
(PID.TID 0000.0001) %MON dynstat_uvel_min             =  -1.3256412755406E-01
(PID.TID 0000.0001) %MON dynstat_uvel_mean            =   1.2779381879606E-03
(PID.TID 0000.0001) %MON dynstat_uvel_sd              =   1.6046360782049E-02
(PID.TID 0000.0001) %MON dynstat_uvel_del2            =   3.4184250381281E-03
(PID.TID 0000.0001) %MON dynstat_vvel_max             =   1.6511267549401E-01
(PID.TID 0000.0001) %MON dynstat_vvel_min             =  -1.3063722973984E-01
(PID.TID 0000.0001) %MON dynstat_vvel_mean            =   1.4654907763755E-03
(PID.TID 0000.0001) %MON dynstat_vvel_sd              =   1.3504340794727E-02
(PID.TID 0000.0001) %MON dynstat_vvel_del2            =   3.3400003376718E-03
(PID.TID 0000.0001) %MON dynstat_wvel_max             =   1.5777470695268E-04
(PID.TID 0000.0001) %MON dynstat_wvel_min             =  -1.9696743079473E-04
(PID.TID 0000.0001) %MON dynstat_wvel_mean            =   2.7250067875706E-22
(PID.TID 0000.0001) %MON dynstat_wvel_sd              =   1.7714923095644E-05
(PID.TID 0000.0001) %MON dynstat_wvel_del2            =   5.7419862117472E-06
(PID.TID 0000.0001) %MON dynstat_theta_max            =   2.9757753577241E+01
(PID.TID 0000.0001) %MON dynstat_theta_min            =  -1.9942597115894E+00
(PID.TID 0000.0001) %MON dynstat_theta_mean           =   3.5862292145039E+00
(PID.TID 0000.0001) %MON dynstat_theta_sd             =   4.3373537404308E+00
(PID.TID 0000.0001) %MON dynstat_theta_del2           =   1.3968868490499E-01
(PID.TID 0000.0001) %MON dynstat_salt_max             =   3.7380320809705E+01
(PID.TID 0000.0001) %MON dynstat_salt_min             =   2.9883724845020E+01
(PID.TID 0000.0001) %MON dynstat_salt_mean            =   3.4715928523203E+01
(PID.TID 0000.0001) %MON dynstat_salt_sd              =   2.9510028181928E-01
(PID.TID 0000.0001) %MON dynstat_salt_del2            =   2.5079787403118E-02
(PID.TID 0000.0001) %MON dynstat_sst_max              =   2.9757753577241E+01
(PID.TID 0000.0001) %MON dynstat_sst_min              =  -1.9183433807028E+00
(PID.TID 0000.0001) %MON dynstat_sst_mean             =   1.8715254701852E+01
(PID.TID 0000.0001) %MON dynstat_sst_sd               =   8.9695761759785E+00
(PID.TID 0000.0001) %MON dynstat_sst_del2             =   2.6563584864977E-01
(PID.TID 0000.0001) %MON dynstat_sss_max              =   3.7380320241078E+01
(PID.TID 0000.0001) %MON dynstat_sss_min              =   2.9883724845020E+01
(PID.TID 0000.0001) %MON dynstat_sss_mean             =   3.4838301036554E+01
(PID.TID 0000.0001) %MON dynstat_sss_sd               =   9.5357481726355E-01
(PID.TID 0000.0001) %MON dynstat_sss_del2             =   7.7276277035993E-02
(PID.TID 0000.0001) %MON extforcing_qnet_max          =   3.2347534434001E+02
(PID.TID 0000.0001) %MON extforcing_qnet_min          =  -1.6909297815959E+02
(PID.TID 0000.0001) %MON extforcing_qnet_mean         =  -1.1173507233611E+01
(PID.TID 0000.0001) %MON extforcing_qnet_sd           =   6.2834120052766E+01
(PID.TID 0000.0001) %MON extforcing_qnet_del2         =   7.9465360533199E+00
(PID.TID 0000.0001) %MON extforcing_qsw_max           =   0.0000000000000E+00
(PID.TID 0000.0001) %MON extforcing_qsw_min           =   0.0000000000000E+00
(PID.TID 0000.0001) %MON extforcing_qsw_mean          =   0.0000000000000E+00
(PID.TID 0000.0001) %MON extforcing_qsw_sd            =   0.0000000000000E+00
(PID.TID 0000.0001) %MON extforcing_qsw_del2          =   0.0000000000000E+00
(PID.TID 0000.0001) %MON extforcing_empmr_max         =   0.0000000000000E+00
(PID.TID 0000.0001) %MON extforcing_empmr_min         =   0.0000000000000E+00
(PID.TID 0000.0001) %MON extforcing_empmr_mean        =   0.0000000000000E+00
(PID.TID 0000.0001) %MON extforcing_empmr_sd          =   0.0000000000000E+00
(PID.TID 0000.0001) %MON extforcing_empmr_del2        =   0.0000000000000E+00
(PID.TID 0000.0001) %MON extforcing_fu_max            =   3.2357662171125E-01
(PID.TID 0000.0001) %MON extforcing_fu_min            =  -2.8304021929701E-01
(PID.TID 0000.0001) %MON extforcing_fu_mean           =   1.8808236484866E-02
(PID.TID 0000.0001) %MON extforcing_fu_sd             =   9.4614955263464E-02
(PID.TID 0000.0001) %MON extforcing_fu_del2           =   8.0842645680762E-03
(PID.TID 0000.0001) %MON extforcing_fv_max            =   1.5564715862274E-01
(PID.TID 0000.0001) %MON extforcing_fv_min            =  -1.8110380321741E-01
(PID.TID 0000.0001) %MON extforcing_fv_mean           =  -7.3470793155788E-03
(PID.TID 0000.0001) %MON extforcing_fv_sd             =   4.2164726707203E-02
(PID.TID 0000.0001) %MON extforcing_fv_del2           =   4.5857914216180E-03
(PID.TID 0000.0001) %MON advcfl_uvel_max              =   2.8400240424831E-02
(PID.TID 0000.0001) %MON advcfl_vvel_max              =   1.6039372379770E-02
(PID.TID 0000.0001) %MON advcfl_wvel_max              =   6.9012750798645E-02
(PID.TID 0000.0001) %MON advcfl_W_hf_max              =   7.1345187902764E-02
(PID.TID 0000.0001) %MON pe_b_mean                    =   3.3668593991210E-04
(PID.TID 0000.0001) %MON ke_max                       =   1.9518222822270E-02
(PID.TID 0000.0001) %MON ke_mean                      =   2.0055842159896E-04
(PID.TID 0000.0001) %MON ke_vol                       =   1.3226782436723E+18
(PID.TID 0000.0001) %MON vort_r_min                   =  -4.9146713767452E-07
(PID.TID 0000.0001) %MON vort_r_max                   =   4.6069506913387E-07
(PID.TID 0000.0001) %MON vort_a_mean                  =  -2.5205769107855E-05
(PID.TID 0000.0001) %MON vort_a_sd                    =   7.3403454251229E-05
(PID.TID 0000.0001) %MON vort_p_mean                  =  -3.1758669197640E-05
(PID.TID 0000.0001) %MON vort_p_sd                    =   1.3126407956319E-04
(PID.TID 0000.0001) %MON surfExpan_theta_mean         =   4.8526063708619E-06
(PID.TID 0000.0001) %MON surfExpan_salt_mean          =  -3.5783305543201E-07
(PID.TID 0000.0001) // =======================================================
(PID.TID 0000.0001) // End MONITOR dynamic field statistics
(PID.TID 0000.0001) // =======================================================
time,SST,SSS,fu,fv,Q,E-P,i0,i1,a,b =   5.0112E+06 -3.8108E-01  3.4490E+01 -1.9966E-02 -1.0244E-02  2.2961E+02  0.0000E+00     2     3  4.3333E-01  5.6667E-01
time,fu0,fu1,fu =   5.0112E+06 -1.4435E-02 -2.7199E-02 -1.9966E-02  4.333333333333333E-01  5.666666666666667E-01
 cg2d: Sum(rhs),rhsMax =   2.26609009335021E-12  8.59122132821649E+00
(PID.TID 0000.0001)                    cg2d_init_res =    2.66182473109593E-01
(PID.TID 0000.0001)                       cg2d_iters =    24
(PID.TID 0000.0001)                         cg2d_res =    5.70828579187792E-14
(PID.TID 0000.0001) // =======================================================
(PID.TID 0000.0001) // Begin MONITOR dynamic field statistics
(PID.TID 0000.0001) // =======================================================
(PID.TID 0000.0001) %MON time_tsnumber                =                   117
(PID.TID 0000.0001) %MON time_secondsf                =   5.0544000000000E+06
(PID.TID 0000.0001) %MON dynstat_eta_max              =   9.5422085485042E-01
(PID.TID 0000.0001) %MON dynstat_eta_min              =  -1.5593302482367E+00
(PID.TID 0000.0001) %MON dynstat_eta_mean             =  -1.1385045884881E-15
(PID.TID 0000.0001) %MON dynstat_eta_sd               =   5.1441368083491E-01
(PID.TID 0000.0001) %MON dynstat_eta_del2             =   2.6963064498048E-02
(PID.TID 0000.0001) %MON dynstat_uvel_max             =   1.8326395308498E-01
(PID.TID 0000.0001) %MON dynstat_uvel_min             =  -1.3265554309879E-01
(PID.TID 0000.0001) %MON dynstat_uvel_mean            =   1.2869603688854E-03
(PID.TID 0000.0001) %MON dynstat_uvel_sd              =   1.6057624240537E-02
(PID.TID 0000.0001) %MON dynstat_uvel_del2            =   3.4177844213980E-03
(PID.TID 0000.0001) %MON dynstat_vvel_max             =   1.6490057346021E-01
(PID.TID 0000.0001) %MON dynstat_vvel_min             =  -1.2916918807626E-01
(PID.TID 0000.0001) %MON dynstat_vvel_mean            =   1.4904315374587E-03
(PID.TID 0000.0001) %MON dynstat_vvel_sd              =   1.3455033477686E-02
(PID.TID 0000.0001) %MON dynstat_vvel_del2            =   3.3401980707225E-03
(PID.TID 0000.0001) %MON dynstat_wvel_max             =   1.5758899718707E-04
(PID.TID 0000.0001) %MON dynstat_wvel_min             =  -1.9161857310628E-04
(PID.TID 0000.0001) %MON dynstat_wvel_mean            =  -9.1065318077319E-23
(PID.TID 0000.0001) %MON dynstat_wvel_sd              =   1.7680125391956E-05
(PID.TID 0000.0001) %MON dynstat_wvel_del2            =   5.7358168328517E-06
(PID.TID 0000.0001) %MON dynstat_theta_max            =   2.9760033665761E+01
(PID.TID 0000.0001) %MON dynstat_theta_min            =  -1.9929586815327E+00
(PID.TID 0000.0001) %MON dynstat_theta_mean           =   3.5862054873948E+00
(PID.TID 0000.0001) %MON dynstat_theta_sd             =   4.3374554276780E+00
(PID.TID 0000.0001) %MON dynstat_theta_del2           =   1.3972299493489E-01
(PID.TID 0000.0001) %MON dynstat_salt_max             =   3.7380644495356E+01
(PID.TID 0000.0001) %MON dynstat_salt_min             =   2.9883662313664E+01
(PID.TID 0000.0001) %MON dynstat_salt_mean            =   3.4715933324795E+01
(PID.TID 0000.0001) %MON dynstat_salt_sd              =   2.9506628702111E-01
(PID.TID 0000.0001) %MON dynstat_salt_del2            =   2.5087815046655E-02
(PID.TID 0000.0001) %MON dynstat_sst_max              =   2.9760033665761E+01
(PID.TID 0000.0001) %MON dynstat_sst_min              =  -1.9185688620480E+00
(PID.TID 0000.0001) %MON dynstat_sst_mean             =   1.8718341314584E+01
(PID.TID 0000.0001) %MON dynstat_sst_sd               =   8.9729275347301E+00
(PID.TID 0000.0001) %MON dynstat_sst_del2             =   2.6623991001467E-01
(PID.TID 0000.0001) %MON dynstat_sss_max              =   3.7379308475106E+01
(PID.TID 0000.0001) %MON dynstat_sss_min              =   2.9883662313664E+01
(PID.TID 0000.0001) %MON dynstat_sss_mean             =   3.4838507011301E+01
(PID.TID 0000.0001) %MON dynstat_sss_sd               =   9.5343576344628E-01
(PID.TID 0000.0001) %MON dynstat_sss_del2             =   7.7377363727745E-02
(PID.TID 0000.0001) %MON extforcing_qnet_max          =   3.2207626851400E+02
(PID.TID 0000.0001) %MON extforcing_qnet_min          =  -1.6894333852132E+02
(PID.TID 0000.0001) %MON extforcing_qnet_mean         =  -1.1061837483797E+01
(PID.TID 0000.0001) %MON extforcing_qnet_sd           =   6.2224367755894E+01
(PID.TID 0000.0001) %MON extforcing_qnet_del2         =   7.9299038446141E+00
(PID.TID 0000.0001) %MON extforcing_qsw_max           =   0.0000000000000E+00
(PID.TID 0000.0001) %MON extforcing_qsw_min           =   0.0000000000000E+00
(PID.TID 0000.0001) %MON extforcing_qsw_mean          =   0.0000000000000E+00
(PID.TID 0000.0001) %MON extforcing_qsw_sd            =   0.0000000000000E+00
(PID.TID 0000.0001) %MON extforcing_qsw_del2          =   0.0000000000000E+00
(PID.TID 0000.0001) %MON extforcing_empmr_max         =   0.0000000000000E+00
(PID.TID 0000.0001) %MON extforcing_empmr_min         =   0.0000000000000E+00
(PID.TID 0000.0001) %MON extforcing_empmr_mean        =   0.0000000000000E+00
(PID.TID 0000.0001) %MON extforcing_empmr_sd          =   0.0000000000000E+00
(PID.TID 0000.0001) %MON extforcing_empmr_del2        =   0.0000000000000E+00
(PID.TID 0000.0001) %MON extforcing_fu_max            =   3.2454732954502E-01
(PID.TID 0000.0001) %MON extforcing_fu_min            =  -2.8573253403107E-01
(PID.TID 0000.0001) %MON extforcing_fu_mean           =   1.8855336279595E-02
(PID.TID 0000.0001) %MON extforcing_fu_sd             =   9.4747636482451E-02
(PID.TID 0000.0001) %MON extforcing_fu_del2           =   8.1023752079277E-03
(PID.TID 0000.0001) %MON extforcing_fv_max            =   1.5510848760605E-01
(PID.TID 0000.0001) %MON extforcing_fv_min            =  -1.8036078512669E-01
(PID.TID 0000.0001) %MON extforcing_fv_mean           =  -7.3522934905635E-03
(PID.TID 0000.0001) %MON extforcing_fv_sd             =   4.2103479761575E-02
(PID.TID 0000.0001) %MON extforcing_fv_del2           =   4.5810629615788E-03
(PID.TID 0000.0001) %MON advcfl_uvel_max              =   2.6969825220565E-02
(PID.TID 0000.0001) %MON advcfl_vvel_max              =   1.6018768368040E-02
(PID.TID 0000.0001) %MON advcfl_wvel_max              =   5.8925825697252E-02
(PID.TID 0000.0001) %MON advcfl_W_hf_max              =   6.1232730492909E-02
(PID.TID 0000.0001) %MON pe_b_mean                    =   3.3861502169169E-04
(PID.TID 0000.0001) %MON ke_max                       =   1.9336308643617E-02
(PID.TID 0000.0001) %MON ke_mean                      =   2.0016953503533E-04
(PID.TID 0000.0001) %MON ke_vol                       =   1.3226782436723E+18
(PID.TID 0000.0001) %MON vort_r_min                   =  -4.9676594052848E-07
(PID.TID 0000.0001) %MON vort_r_max                   =   4.6161519707980E-07
(PID.TID 0000.0001) %MON vort_a_mean                  =  -2.5205769106973E-05
(PID.TID 0000.0001) %MON vort_a_sd                    =   7.3403455033241E-05
(PID.TID 0000.0001) %MON vort_p_mean                  =  -3.1758669196529E-05
(PID.TID 0000.0001) %MON vort_p_sd                    =   1.3126403697486E-04
(PID.TID 0000.0001) %MON surfExpan_theta_mean         =   4.3879432815458E-06
(PID.TID 0000.0001) %MON surfExpan_salt_mean          =  -4.1126382466831E-07
(PID.TID 0000.0001) // =======================================================
(PID.TID 0000.0001) // End MONITOR dynamic field statistics
(PID.TID 0000.0001) // =======================================================
time,SST,SSS,fu,fv,Q,E-P,i0,i1,a,b =   5.0544E+06 -3.7528E-01  3.4492E+01 -2.0179E-02 -9.9597E-03  2.2919E+02  0.0000E+00     2     3  4.5000E-01  5.5000E-01
time,fu0,fu1,fu =   5.0544E+06 -1.4435E-02 -2.7199E-02 -2.0179E-02  4.500000000000000E-01  5.500000000000000E-01
 cg2d: Sum(rhs),rhsMax =   2.34449959446437E-12  8.77527684111764E+00
(PID.TID 0000.0001)                    cg2d_init_res =    2.52746905369715E-01
(PID.TID 0000.0001)                       cg2d_iters =    24
(PID.TID 0000.0001)                         cg2d_res =    5.40774033306680E-14
(PID.TID 0000.0001) // =======================================================
(PID.TID 0000.0001) // Begin MONITOR dynamic field statistics
(PID.TID 0000.0001) // =======================================================
(PID.TID 0000.0001) %MON time_tsnumber                =                   118
(PID.TID 0000.0001) %MON time_secondsf                =   5.0976000000000E+06
(PID.TID 0000.0001) %MON dynstat_eta_max              =   9.8338804998745E-01
(PID.TID 0000.0001) %MON dynstat_eta_min              =  -1.5550173518603E+00
(PID.TID 0000.0001) %MON dynstat_eta_mean             =  -1.0537002780991E-15
(PID.TID 0000.0001) %MON dynstat_eta_sd               =   5.1583095907054E-01
(PID.TID 0000.0001) %MON dynstat_eta_del2             =   2.6979081133303E-02
(PID.TID 0000.0001) %MON dynstat_uvel_max             =   1.8593591674582E-01
(PID.TID 0000.0001) %MON dynstat_uvel_min             =  -1.3271259076105E-01
(PID.TID 0000.0001) %MON dynstat_uvel_mean            =   1.2916160266181E-03
(PID.TID 0000.0001) %MON dynstat_uvel_sd              =   1.6056599531547E-02
(PID.TID 0000.0001) %MON dynstat_uvel_del2            =   3.4161466984492E-03
(PID.TID 0000.0001) %MON dynstat_vvel_max             =   1.6451066202589E-01
(PID.TID 0000.0001) %MON dynstat_vvel_min             =  -1.2750588455505E-01
(PID.TID 0000.0001) %MON dynstat_vvel_mean            =   1.5107520441842E-03
(PID.TID 0000.0001) %MON dynstat_vvel_sd              =   1.3402204574112E-02
(PID.TID 0000.0001) %MON dynstat_vvel_del2            =   3.3392315279476E-03
(PID.TID 0000.0001) %MON dynstat_wvel_max             =   1.5711686539074E-04
(PID.TID 0000.0001) %MON dynstat_wvel_min             =  -1.8591832075366E-04
(PID.TID 0000.0001) %MON dynstat_wvel_mean            =  -3.0345548974572E-23
(PID.TID 0000.0001) %MON dynstat_wvel_sd              =   1.7646338041865E-05
(PID.TID 0000.0001) %MON dynstat_wvel_del2            =   5.7397559835184E-06
(PID.TID 0000.0001) %MON dynstat_theta_max            =   2.9761692406153E+01
(PID.TID 0000.0001) %MON dynstat_theta_min            =  -1.9915677988536E+00
(PID.TID 0000.0001) %MON dynstat_theta_mean           =   3.5861862508313E+00
(PID.TID 0000.0001) %MON dynstat_theta_sd             =   4.3375701467046E+00
(PID.TID 0000.0001) %MON dynstat_theta_del2           =   1.3973937654449E-01
(PID.TID 0000.0001) %MON dynstat_salt_max             =   3.7380905405233E+01
(PID.TID 0000.0001) %MON dynstat_salt_min             =   2.9883685329037E+01
(PID.TID 0000.0001) %MON dynstat_salt_mean            =   3.4715938693682E+01
(PID.TID 0000.0001) %MON dynstat_salt_sd              =   2.9503656521952E-01
(PID.TID 0000.0001) %MON dynstat_salt_del2            =   2.5084993358246E-02
(PID.TID 0000.0001) %MON dynstat_sst_max              =   2.9761692406153E+01
(PID.TID 0000.0001) %MON dynstat_sst_min              =  -1.9187212720590E+00
(PID.TID 0000.0001) %MON dynstat_sst_mean             =   1.8720759580566E+01
(PID.TID 0000.0001) %MON dynstat_sst_sd               =   8.9768996035895E+00
(PID.TID 0000.0001) %MON dynstat_sst_del2             =   2.6633007664583E-01
(PID.TID 0000.0001) %MON dynstat_sss_max              =   3.7378306571683E+01
(PID.TID 0000.0001) %MON dynstat_sss_min              =   2.9883685329037E+01
(PID.TID 0000.0001) %MON dynstat_sss_mean             =   3.4838595214793E+01
(PID.TID 0000.0001) %MON dynstat_sss_sd               =   9.5331918590935E-01
(PID.TID 0000.0001) %MON dynstat_sss_del2             =   7.7360734373237E-02
(PID.TID 0000.0001) %MON extforcing_qnet_max          =   3.2067719268799E+02
(PID.TID 0000.0001) %MON extforcing_qnet_min          =  -1.6879369888306E+02
(PID.TID 0000.0001) %MON extforcing_qnet_mean         =  -1.0950167733984E+01
(PID.TID 0000.0001) %MON extforcing_qnet_sd           =   6.1620611037751E+01
(PID.TID 0000.0001) %MON extforcing_qnet_del2         =   7.9140940371822E+00
(PID.TID 0000.0001) %MON extforcing_qsw_max           =   0.0000000000000E+00
(PID.TID 0000.0001) %MON extforcing_qsw_min           =   0.0000000000000E+00
(PID.TID 0000.0001) %MON extforcing_qsw_mean          =   0.0000000000000E+00
(PID.TID 0000.0001) %MON extforcing_qsw_sd            =   0.0000000000000E+00
(PID.TID 0000.0001) %MON extforcing_qsw_del2          =   0.0000000000000E+00
(PID.TID 0000.0001) %MON extforcing_empmr_max         =   0.0000000000000E+00
(PID.TID 0000.0001) %MON extforcing_empmr_min         =   0.0000000000000E+00
(PID.TID 0000.0001) %MON extforcing_empmr_mean        =   0.0000000000000E+00
(PID.TID 0000.0001) %MON extforcing_empmr_sd          =   0.0000000000000E+00
(PID.TID 0000.0001) %MON extforcing_empmr_del2        =   0.0000000000000E+00
(PID.TID 0000.0001) %MON extforcing_fu_max            =   3.2551803737879E-01
(PID.TID 0000.0001) %MON extforcing_fu_min            =  -2.8842484876513E-01
(PID.TID 0000.0001) %MON extforcing_fu_mean           =   1.8902436074324E-02
(PID.TID 0000.0001) %MON extforcing_fu_sd             =   9.4885447310733E-02
(PID.TID 0000.0001) %MON extforcing_fu_del2           =   8.1219318662945E-03
(PID.TID 0000.0001) %MON extforcing_fv_max            =   1.5456981658936E-01
(PID.TID 0000.0001) %MON extforcing_fv_min            =  -1.7961776703596E-01
(PID.TID 0000.0001) %MON extforcing_fv_mean           =  -7.3575076655482E-03
(PID.TID 0000.0001) %MON extforcing_fv_sd             =   4.2046635819665E-02
(PID.TID 0000.0001) %MON extforcing_fv_del2           =   4.5777740322934E-03
(PID.TID 0000.0001) %MON advcfl_uvel_max              =   2.6001534067932E-02
(PID.TID 0000.0001) %MON advcfl_vvel_max              =   1.5980891598910E-02
(PID.TID 0000.0001) %MON advcfl_wvel_max              =   4.9423879120920E-02
(PID.TID 0000.0001) %MON advcfl_W_hf_max              =   5.0214653792019E-02
(PID.TID 0000.0001) %MON pe_b_mean                    =   3.4048345104630E-04
(PID.TID 0000.0001) %MON ke_max                       =   1.8970782186062E-02
(PID.TID 0000.0001) %MON ke_mean                      =   1.9955043890945E-04
(PID.TID 0000.0001) %MON ke_vol                       =   1.3226782436723E+18
(PID.TID 0000.0001) %MON vort_r_min                   =  -5.0225023407673E-07
(PID.TID 0000.0001) %MON vort_r_max                   =   4.6065465466192E-07
(PID.TID 0000.0001) %MON vort_a_mean                  =  -2.5205769104697E-05
(PID.TID 0000.0001) %MON vort_a_sd                    =   7.3403455194273E-05
(PID.TID 0000.0001) %MON vort_p_mean                  =  -3.1758669193661E-05
(PID.TID 0000.0001) %MON vort_p_sd                    =   1.3126398458571E-04
(PID.TID 0000.0001) %MON surfExpan_theta_mean         =   3.9697498685508E-06
(PID.TID 0000.0001) %MON surfExpan_salt_mean          =  -4.5936225346245E-07
(PID.TID 0000.0001) // =======================================================
(PID.TID 0000.0001) // End MONITOR dynamic field statistics
(PID.TID 0000.0001) // =======================================================
time,SST,SSS,fu,fv,Q,E-P,i0,i1,a,b =   5.0976E+06 -3.6948E-01  3.4495E+01 -2.0391E-02 -9.6754E-03  2.2877E+02  0.0000E+00     2     3  4.6667E-01  5.3333E-01
time,fu0,fu1,fu =   5.0976E+06 -1.4435E-02 -2.7199E-02 -2.0391E-02  4.666666666666667E-01  5.333333333333333E-01
 cg2d: Sum(rhs),rhsMax =   1.80648551673102E-12  9.00166235036072E+00
(PID.TID 0000.0001)                    cg2d_init_res =    2.39586696465515E-01
(PID.TID 0000.0001)                       cg2d_iters =    24
(PID.TID 0000.0001)                         cg2d_res =    5.19051212761113E-14
(PID.TID 0000.0001) // =======================================================
(PID.TID 0000.0001) // Begin MONITOR dynamic field statistics
(PID.TID 0000.0001) // =======================================================
(PID.TID 0000.0001) %MON time_tsnumber                =                   119
(PID.TID 0000.0001) %MON time_secondsf                =   5.1408000000000E+06
(PID.TID 0000.0001) %MON dynstat_eta_max              =   1.0085788144917E+00
(PID.TID 0000.0001) %MON dynstat_eta_min              =  -1.5494462144932E+00
(PID.TID 0000.0001) %MON dynstat_eta_mean             =  -9.9194723112139E-16
(PID.TID 0000.0001) %MON dynstat_eta_sd               =   5.1719517626012E-01
(PID.TID 0000.0001) %MON dynstat_eta_del2             =   2.6980815306612E-02
(PID.TID 0000.0001) %MON dynstat_uvel_max             =   1.8786433746329E-01
(PID.TID 0000.0001) %MON dynstat_uvel_min             =  -1.3273771391387E-01
(PID.TID 0000.0001) %MON dynstat_uvel_mean            =   1.2916033585722E-03
(PID.TID 0000.0001) %MON dynstat_uvel_sd              =   1.6044259934001E-02
(PID.TID 0000.0001) %MON dynstat_uvel_del2            =   3.4143475893540E-03
(PID.TID 0000.0001) %MON dynstat_vvel_max             =   1.6394367028366E-01
(PID.TID 0000.0001) %MON dynstat_vvel_min             =  -1.2566348212231E-01
(PID.TID 0000.0001) %MON dynstat_vvel_mean            =   1.5269736084964E-03
(PID.TID 0000.0001) %MON dynstat_vvel_sd              =   1.3346496614132E-02
(PID.TID 0000.0001) %MON dynstat_vvel_del2            =   3.3374409594985E-03
(PID.TID 0000.0001) %MON dynstat_wvel_max             =   1.5634690840618E-04
(PID.TID 0000.0001) %MON dynstat_wvel_min             =  -1.7996811664274E-04
(PID.TID 0000.0001) %MON dynstat_wvel_mean            =   1.5137222256817E-22
(PID.TID 0000.0001) %MON dynstat_wvel_sd              =   1.7613526762664E-05
(PID.TID 0000.0001) %MON dynstat_wvel_del2            =   5.7524748468385E-06
(PID.TID 0000.0001) %MON dynstat_theta_max            =   2.9762658423594E+01
(PID.TID 0000.0001) %MON dynstat_theta_min            =  -1.9900799330087E+00
(PID.TID 0000.0001) %MON dynstat_theta_mean           =   3.5861710655767E+00
(PID.TID 0000.0001) %MON dynstat_theta_sd             =   4.3376902223460E+00
(PID.TID 0000.0001) %MON dynstat_theta_del2           =   1.3975946157312E-01
(PID.TID 0000.0001) %MON dynstat_salt_max             =   3.7381104446509E+01
(PID.TID 0000.0001) %MON dynstat_salt_min             =   2.9883789631165E+01
(PID.TID 0000.0001) %MON dynstat_salt_mean            =   3.4715944566781E+01
(PID.TID 0000.0001) %MON dynstat_salt_sd              =   2.9500735733666E-01
(PID.TID 0000.0001) %MON dynstat_salt_del2            =   2.5083116358476E-02
(PID.TID 0000.0001) %MON dynstat_sst_max              =   2.9762658423594E+01
(PID.TID 0000.0001) %MON dynstat_sst_min              =  -1.9188059893030E+00
(PID.TID 0000.0001) %MON dynstat_sst_mean             =   1.8723018251715E+01
(PID.TID 0000.0001) %MON dynstat_sst_sd               =   8.9809639500199E+00
(PID.TID 0000.0001) %MON dynstat_sst_del2             =   2.6644815497685E-01
(PID.TID 0000.0001) %MON dynstat_sss_max              =   3.7377308942914E+01
(PID.TID 0000.0001) %MON dynstat_sss_min              =   2.9883789631165E+01
(PID.TID 0000.0001) %MON dynstat_sss_mean             =   3.4838685922824E+01
(PID.TID 0000.0001) %MON dynstat_sss_sd               =   9.5321269021248E-01
(PID.TID 0000.0001) %MON dynstat_sss_del2             =   7.7351164872797E-02
(PID.TID 0000.0001) %MON extforcing_qnet_max          =   3.1927811686198E+02
(PID.TID 0000.0001) %MON extforcing_qnet_min          =  -1.6864405924479E+02
(PID.TID 0000.0001) %MON extforcing_qnet_mean         =  -1.0838497984171E+01
(PID.TID 0000.0001) %MON extforcing_qnet_sd           =   6.1023027857854E+01
(PID.TID 0000.0001) %MON extforcing_qnet_del2         =   7.8994969831864E+00
(PID.TID 0000.0001) %MON extforcing_qsw_max           =   0.0000000000000E+00
(PID.TID 0000.0001) %MON extforcing_qsw_min           =   0.0000000000000E+00
(PID.TID 0000.0001) %MON extforcing_qsw_mean          =   0.0000000000000E+00
(PID.TID 0000.0001) %MON extforcing_qsw_sd            =   0.0000000000000E+00
(PID.TID 0000.0001) %MON extforcing_qsw_del2          =   0.0000000000000E+00
(PID.TID 0000.0001) %MON extforcing_empmr_max         =   0.0000000000000E+00
(PID.TID 0000.0001) %MON extforcing_empmr_min         =   0.0000000000000E+00
(PID.TID 0000.0001) %MON extforcing_empmr_mean        =   0.0000000000000E+00
(PID.TID 0000.0001) %MON extforcing_empmr_sd          =   0.0000000000000E+00
(PID.TID 0000.0001) %MON extforcing_empmr_del2        =   0.0000000000000E+00
(PID.TID 0000.0001) %MON extforcing_fu_max            =   3.2648874521255E-01
(PID.TID 0000.0001) %MON extforcing_fu_min            =  -2.9111716349920E-01
(PID.TID 0000.0001) %MON extforcing_fu_mean           =   1.8949535869053E-02
(PID.TID 0000.0001) %MON extforcing_fu_sd             =   9.5028365431322E-02
(PID.TID 0000.0001) %MON extforcing_fu_del2           =   8.1425561549326E-03
(PID.TID 0000.0001) %MON extforcing_fv_max            =   1.5403114557266E-01
(PID.TID 0000.0001) %MON extforcing_fv_min            =  -1.7887474894524E-01
(PID.TID 0000.0001) %MON extforcing_fv_mean           =  -7.3627218405330E-03
(PID.TID 0000.0001) %MON extforcing_fv_sd             =   4.1994212761373E-02
(PID.TID 0000.0001) %MON extforcing_fv_del2           =   4.5756388066726E-03
(PID.TID 0000.0001) %MON advcfl_uvel_max              =   2.6271207070653E-02
(PID.TID 0000.0001) %MON advcfl_vvel_max              =   1.5925812897879E-02
(PID.TID 0000.0001) %MON advcfl_wvel_max              =   5.1539587643506E-02
(PID.TID 0000.0001) %MON advcfl_W_hf_max              =   4.3786446648155E-02
(PID.TID 0000.0001) %MON pe_b_mean                    =   3.4228678444805E-04
(PID.TID 0000.0001) %MON ke_max                       =   1.8432569624918E-02
(PID.TID 0000.0001) %MON ke_mean                      =   1.9872360875184E-04
(PID.TID 0000.0001) %MON ke_vol                       =   1.3226782436723E+18
(PID.TID 0000.0001) %MON vort_r_min                   =  -5.0781339558586E-07
(PID.TID 0000.0001) %MON vort_r_max                   =   4.5790658706565E-07
(PID.TID 0000.0001) %MON vort_a_mean                  =  -2.5205769101107E-05
(PID.TID 0000.0001) %MON vort_a_sd                    =   7.3403454630795E-05
(PID.TID 0000.0001) %MON vort_p_mean                  =  -3.1758669189139E-05
(PID.TID 0000.0001) %MON vort_p_sd                    =   1.3126392301488E-04
(PID.TID 0000.0001) %MON surfExpan_theta_mean         =   3.5985337146129E-06
(PID.TID 0000.0001) %MON surfExpan_salt_mean          =  -5.0174420790066E-07
(PID.TID 0000.0001) // =======================================================
(PID.TID 0000.0001) // End MONITOR dynamic field statistics
(PID.TID 0000.0001) // =======================================================
time,SST,SSS,fu,fv,Q,E-P,i0,i1,a,b =   5.1408E+06 -3.6368E-01  3.4497E+01 -2.0604E-02 -9.3911E-03  2.2836E+02  0.0000E+00     2     3  4.8333E-01  5.1667E-01
time,fu0,fu1,fu =   5.1408E+06 -1.4435E-02 -2.7199E-02 -2.0604E-02  4.833333333333333E-01  5.166666666666666E-01
 cg2d: Sum(rhs),rhsMax =   1.60300939189284E-12  9.15305707655141E+00
(PID.TID 0000.0001)                    cg2d_init_res =    2.30251858037898E-01
(PID.TID 0000.0001)                       cg2d_iters =    24
(PID.TID 0000.0001)                         cg2d_res =    5.11501001644789E-14
(PID.TID 0000.0001) // =======================================================
(PID.TID 0000.0001) // Begin MONITOR dynamic field statistics
(PID.TID 0000.0001) // =======================================================
(PID.TID 0000.0001) %MON time_tsnumber                =                   120
(PID.TID 0000.0001) %MON time_secondsf                =   5.1840000000000E+06
(PID.TID 0000.0001) %MON dynstat_eta_max              =   1.0254284503910E+00
(PID.TID 0000.0001) %MON dynstat_eta_min              =  -1.5541490647830E+00
(PID.TID 0000.0001) %MON dynstat_eta_mean             =  -1.0639240582186E-15
(PID.TID 0000.0001) %MON dynstat_eta_sd               =   5.1850549112941E-01
(PID.TID 0000.0001) %MON dynstat_eta_del2             =   2.6977809904091E-02
(PID.TID 0000.0001) %MON dynstat_uvel_max             =   1.8901375679528E-01
(PID.TID 0000.0001) %MON dynstat_uvel_min             =  -1.3273314084245E-01
(PID.TID 0000.0001) %MON dynstat_uvel_mean            =   1.2867121408414E-03
(PID.TID 0000.0001) %MON dynstat_uvel_sd              =   1.6021398933323E-02
(PID.TID 0000.0001) %MON dynstat_uvel_del2            =   3.4133390509343E-03
(PID.TID 0000.0001) %MON dynstat_vvel_max             =   1.6320095278207E-01
(PID.TID 0000.0001) %MON dynstat_vvel_min             =  -1.2365825637517E-01
(PID.TID 0000.0001) %MON dynstat_vvel_mean            =   1.5394879170893E-03
(PID.TID 0000.0001) %MON dynstat_vvel_sd              =   1.3288851144188E-02
(PID.TID 0000.0001) %MON dynstat_vvel_del2            =   3.3362291466869E-03
(PID.TID 0000.0001) %MON dynstat_wvel_max             =   1.5527336084843E-04
(PID.TID 0000.0001) %MON dynstat_wvel_min             =  -1.7387017449829E-04
(PID.TID 0000.0001) %MON dynstat_wvel_mean            =  -1.2984592044222E-22
(PID.TID 0000.0001) %MON dynstat_wvel_sd              =   1.7582475512742E-05
(PID.TID 0000.0001) %MON dynstat_wvel_del2            =   5.7650711239117E-06
(PID.TID 0000.0001) %MON dynstat_theta_max            =   2.9762877043004E+01
(PID.TID 0000.0001) %MON dynstat_theta_min            =  -1.9884891491812E+00
(PID.TID 0000.0001) %MON dynstat_theta_mean           =   3.5861593820174E+00
(PID.TID 0000.0001) %MON dynstat_theta_sd             =   4.3378129610272E+00
(PID.TID 0000.0001) %MON dynstat_theta_del2           =   1.3978370622549E-01
(PID.TID 0000.0001) %MON dynstat_salt_max             =   3.7381242908127E+01
(PID.TID 0000.0001) %MON dynstat_salt_min             =   2.9883967811425E+01
(PID.TID 0000.0001) %MON dynstat_salt_mean            =   3.4715950874364E+01
(PID.TID 0000.0001) %MON dynstat_salt_sd              =   2.9497885699250E-01
(PID.TID 0000.0001) %MON dynstat_salt_del2            =   2.5082016994247E-02
(PID.TID 0000.0001) %MON dynstat_sst_max              =   2.9762877043004E+01
(PID.TID 0000.0001) %MON dynstat_sst_min              =  -1.9188303141389E+00
(PID.TID 0000.0001) %MON dynstat_sst_mean             =   1.8725116717128E+01
(PID.TID 0000.0001) %MON dynstat_sst_sd               =   8.9850888305239E+00
(PID.TID 0000.0001) %MON dynstat_sst_del2             =   2.6660678490668E-01
(PID.TID 0000.0001) %MON dynstat_sss_max              =   3.7376310467655E+01
(PID.TID 0000.0001) %MON dynstat_sss_min              =   2.9883967811425E+01
(PID.TID 0000.0001) %MON dynstat_sss_mean             =   3.4838778277342E+01
(PID.TID 0000.0001) %MON dynstat_sss_sd               =   9.5311488118702E-01
(PID.TID 0000.0001) %MON dynstat_sss_del2             =   7.7344873730788E-02
(PID.TID 0000.0001) %MON extforcing_qnet_max          =   3.1787904103597E+02
(PID.TID 0000.0001) %MON extforcing_qnet_min          =  -1.6849441960653E+02
(PID.TID 0000.0001) %MON extforcing_qnet_mean         =  -1.0726828234357E+01
(PID.TID 0000.0001) %MON extforcing_qnet_sd           =   6.0431801358595E+01
(PID.TID 0000.0001) %MON extforcing_qnet_del2         =   7.8854964479358E+00
(PID.TID 0000.0001) %MON extforcing_qsw_max           =   0.0000000000000E+00
(PID.TID 0000.0001) %MON extforcing_qsw_min           =   0.0000000000000E+00
(PID.TID 0000.0001) %MON extforcing_qsw_mean          =   0.0000000000000E+00
(PID.TID 0000.0001) %MON extforcing_qsw_sd            =   0.0000000000000E+00
(PID.TID 0000.0001) %MON extforcing_qsw_del2          =   0.0000000000000E+00
(PID.TID 0000.0001) %MON extforcing_empmr_max         =   0.0000000000000E+00
(PID.TID 0000.0001) %MON extforcing_empmr_min         =   0.0000000000000E+00
(PID.TID 0000.0001) %MON extforcing_empmr_mean        =   0.0000000000000E+00
(PID.TID 0000.0001) %MON extforcing_empmr_sd          =   0.0000000000000E+00
(PID.TID 0000.0001) %MON extforcing_empmr_del2        =   0.0000000000000E+00
(PID.TID 0000.0001) %MON extforcing_fu_max            =   3.2745945304632E-01
(PID.TID 0000.0001) %MON extforcing_fu_min            =  -2.9380947823326E-01
(PID.TID 0000.0001) %MON extforcing_fu_mean           =   1.8996635663783E-02
(PID.TID 0000.0001) %MON extforcing_fu_sd             =   9.5176367836683E-02
(PID.TID 0000.0001) %MON extforcing_fu_del2           =   8.1645523466021E-03
(PID.TID 0000.0001) %MON extforcing_fv_max            =   1.5349247455597E-01
(PID.TID 0000.0001) %MON extforcing_fv_min            =  -1.7813173085451E-01
(PID.TID 0000.0001) %MON extforcing_fv_mean           =  -7.3679360155177E-03
(PID.TID 0000.0001) %MON extforcing_fv_sd             =   4.1946227161942E-02
(PID.TID 0000.0001) %MON extforcing_fv_del2           =   4.5743140144858E-03
(PID.TID 0000.0001) %MON advcfl_uvel_max              =   2.6431943449306E-02
(PID.TID 0000.0001) %MON advcfl_vvel_max              =   1.5853663848479E-02
(PID.TID 0000.0001) %MON advcfl_wvel_max              =   5.5726041493510E-02
(PID.TID 0000.0001) %MON advcfl_W_hf_max              =   4.2341450688458E-02
(PID.TID 0000.0001) %MON pe_b_mean                    =   3.4402334977574E-04
(PID.TID 0000.0001) %MON ke_max                       =   1.8851644983228E-02
(PID.TID 0000.0001) %MON ke_mean                      =   1.9771275872589E-04
(PID.TID 0000.0001) %MON ke_vol                       =   1.3226782436723E+18
(PID.TID 0000.0001) %MON vort_r_min                   =  -5.1334754914255E-07
(PID.TID 0000.0001) %MON vort_r_max                   =   4.5351881008823E-07
(PID.TID 0000.0001) %MON vort_a_mean                  =  -2.5205769096328E-05
(PID.TID 0000.0001) %MON vort_a_sd                    =   7.3403453258245E-05
(PID.TID 0000.0001) %MON vort_p_mean                  =  -3.1758669183116E-05
(PID.TID 0000.0001) %MON vort_p_sd                    =   1.3126385354013E-04
(PID.TID 0000.0001) %MON surfExpan_theta_mean         =   3.2765379326850E-06
(PID.TID 0000.0001) %MON surfExpan_salt_mean          =  -5.3757734442715E-07
(PID.TID 0000.0001) // =======================================================
(PID.TID 0000.0001) // End MONITOR dynamic field statistics
(PID.TID 0000.0001) // =======================================================
 --> objf_test(bi,bj)   =  0.000000000000000E+00
 --> objf_tracer(bi,bj) =  0.000000000000000E+00
 --> objf_atl(bi,bj)    = -0.114865705235558E+00
  local fc = -0.114865705235558E+00
 global fc = -0.114865705235558E+00
S/R EXTERNAL_FIELDS_LOAD: Reading new data:   12    1         0  0.000000000000E+00
(PID.TID 0000.0001)  MDSREADFIELD: opening global file: trenberth_taux.bin
(PID.TID 0000.0001)  MDSREADFIELD: opening global file: trenberth_taux.bin
(PID.TID 0000.0001)  MDSREADFIELD: opening global file: trenberth_tauy.bin
(PID.TID 0000.0001)  MDSREADFIELD: opening global file: trenberth_tauy.bin
(PID.TID 0000.0001)  MDSREADFIELD: opening global file: ncep_qnet.bin
(PID.TID 0000.0001)  MDSREADFIELD: opening global file: ncep_qnet.bin
(PID.TID 0000.0001)  MDSREADFIELD: opening global file: lev_sst.bin
(PID.TID 0000.0001)  MDSREADFIELD: opening global file: lev_sst.bin
(PID.TID 0000.0001)  MDSREADFIELD: opening global file: lev_sss.bin
(PID.TID 0000.0001)  MDSREADFIELD: opening global file: lev_sss.bin
time,SST,SSS,fu,fv,Q,E-P,i0,i1,a,b =   0.0000E+00  5.3151E-02  3.4364E+01 -4.0500E-02 -6.3753E-02  2.6510E+02  0.0000E+00    12     1  5.0000E-01  5.0000E-01
time,fu0,fu1,fu =   0.0000E+00 -4.5368E-02 -3.5633E-02 -4.0500E-02  5.000000000000000E-01  5.000000000000000E-01
(PID.TID 0000.0001)  MDSREADFIELD: opening file: xx_tauu.0000000000.001.001.data
(PID.TID 0000.0001)  MDSREADFIELD: opening file: xx_tauv.0000000000.001.001.data
(PID.TID 0000.0001)  MDSREADFIELD: opening file: xx_sflux.0000000000.001.001.data
(PID.TID 0000.0001)  MDSREADFIELD: opening file: xx_hflux.0000000000.001.001.data
 cg2d: Sum(rhs),rhsMax =  -5.41233724504764E-16  2.53364304519873E+00
time,SST,SSS,fu,fv,Q,E-P,i0,i1,a,b =   4.3200E+04  8.3327E-02  3.4375E+01 -4.0338E-02 -6.3536E-02  2.6512E+02  0.0000E+00    12     1  5.1667E-01  4.8333E-01
time,fu0,fu1,fu =   4.3200E+04 -4.5368E-02 -3.5633E-02 -4.0338E-02  5.166666666666667E-01  4.833333333333333E-01
 cg2d: Sum(rhs),rhsMax =   3.31609739667726E-14  5.05307478634997E+00
time,SST,SSS,fu,fv,Q,E-P,i0,i1,a,b =   8.6400E+04  1.1350E-01  3.4387E+01 -4.0176E-02 -6.3320E-02  2.6514E+02  0.0000E+00    12     1  5.3333E-01  4.6667E-01
time,fu0,fu1,fu =   8.6400E+04 -4.5368E-02 -3.5633E-02 -4.0176E-02  5.333333333333333E-01  4.666666666666667E-01
 cg2d: Sum(rhs),rhsMax =   7.56339435525888E-14  6.32564766002464E+00
time,SST,SSS,fu,fv,Q,E-P,i0,i1,a,b =   1.2960E+05  1.4368E-01  3.4399E+01 -4.0014E-02 -6.3103E-02  2.6516E+02  0.0000E+00    12     1  5.5000E-01  4.5000E-01
time,fu0,fu1,fu =   1.2960E+05 -4.5368E-02 -3.5633E-02 -4.0014E-02  5.500000000000000E-01  4.500000000000000E-01
 cg2d: Sum(rhs),rhsMax =   5.70515856779252E-14  6.76202107413721E+00
time,SST,SSS,fu,fv,Q,E-P,i0,i1,a,b =   1.7280E+05  1.7385E-01  3.4410E+01 -3.9851E-02 -6.2886E-02  2.6519E+02  0.0000E+00    12     1  5.6667E-01  4.3333E-01
time,fu0,fu1,fu =   1.7280E+05 -4.5368E-02 -3.5633E-02 -3.9851E-02  5.666666666666667E-01  4.333333333333333E-01
 cg2d: Sum(rhs),rhsMax =  -3.60458191073221E-14  6.91128535917370E+00
time,SST,SSS,fu,fv,Q,E-P,i0,i1,a,b =   2.1600E+05  2.0403E-01  3.4422E+01 -3.9689E-02 -6.2670E-02  2.6521E+02  0.0000E+00    12     1  5.8333E-01  4.1667E-01
time,fu0,fu1,fu =   2.1600E+05 -4.5368E-02 -3.5633E-02 -3.9689E-02  5.833333333333334E-01  4.166666666666666E-01
 cg2d: Sum(rhs),rhsMax =   1.68404352962614E-13  6.96038704691245E+00
time,SST,SSS,fu,fv,Q,E-P,i0,i1,a,b =   2.5920E+05  2.3421E-01  3.4434E+01 -3.9527E-02 -6.2453E-02  2.6523E+02  0.0000E+00    12     1  6.0000E-01  4.0000E-01
time,fu0,fu1,fu =   2.5920E+05 -4.5368E-02 -3.5633E-02 -3.9527E-02  6.000000000000000E-01  4.000000000000000E-01
 cg2d: Sum(rhs),rhsMax =   7.20829645972643E-14  7.26221759046287E+00
time,SST,SSS,fu,fv,Q,E-P,i0,i1,a,b =   3.0240E+05  2.6438E-01  3.4446E+01 -3.9365E-02 -6.2237E-02  2.6525E+02  0.0000E+00    12     1  6.1667E-01  3.8333E-01
time,fu0,fu1,fu =   3.0240E+05 -4.5368E-02 -3.5633E-02 -3.9365E-02  6.166666666666667E-01  3.833333333333333E-01
 cg2d: Sum(rhs),rhsMax =  -1.74462549441812E-13  7.87499194900245E+00
time,SST,SSS,fu,fv,Q,E-P,i0,i1,a,b =   3.4560E+05  2.9456E-01  3.4457E+01 -3.9202E-02 -6.2020E-02  2.6528E+02  0.0000E+00    12     1  6.3333E-01  3.6667E-01
time,fu0,fu1,fu =   3.4560E+05 -4.5368E-02 -3.5633E-02 -3.9202E-02  6.333333333333333E-01  3.666666666666667E-01
 cg2d: Sum(rhs),rhsMax =   7.00810937059870E-14  8.21213972807562E+00
time,SST,SSS,fu,fv,Q,E-P,i0,i1,a,b =   3.8880E+05  3.2473E-01  3.4469E+01 -3.9040E-02 -6.1804E-02  2.6530E+02  0.0000E+00    12     1  6.5000E-01  3.5000E-01
time,fu0,fu1,fu =   3.8880E+05 -4.5368E-02 -3.5633E-02 -3.9040E-02  6.500000000000000E-01  3.500000000000000E-01
 cg2d: Sum(rhs),rhsMax =  -3.57795390537596E-13  8.31512136376637E+00
time,SST,SSS,fu,fv,Q,E-P,i0,i1,a,b =   4.3200E+05  3.5491E-01  3.4481E+01 -3.8878E-02 -6.1587E-02  2.6532E+02  0.0000E+00    12     1  6.6667E-01  3.3333E-01
time,fu0,fu1,fu =   4.3200E+05 -4.5368E-02 -3.5633E-02 -3.8878E-02  6.666666666666666E-01  3.333333333333334E-01
 cg2d: Sum(rhs),rhsMax =  -5.20239233636755E-13  8.25257067290290E+00
time,SST,SSS,fu,fv,Q,E-P,i0,i1,a,b =   4.7520E+05  3.8508E-01  3.4492E+01 -3.8716E-02 -6.1371E-02  2.6534E+02  0.0000E+00    12     1  6.8333E-01  3.1667E-01
time,fu0,fu1,fu =   4.7520E+05 -4.5368E-02 -3.5633E-02 -3.8716E-02  6.833333333333333E-01  3.166666666666667E-01
 cg2d: Sum(rhs),rhsMax =  -1.06002012723039E-12  8.09293762885826E+00
time,SST,SSS,fu,fv,Q,E-P,i0,i1,a,b =   5.1840E+05  4.1526E-01  3.4504E+01 -3.8553E-02 -6.1154E-02  2.6537E+02  0.0000E+00    12     1  7.0000E-01  3.0000E-01
time,fu0,fu1,fu =   5.1840E+05 -4.5368E-02 -3.5633E-02 -3.8553E-02  7.000000000000000E-01  3.000000000000000E-01
 cg2d: Sum(rhs),rhsMax =  -9.28249664633451E-13  8.55637530605072E+00
time,SST,SSS,fu,fv,Q,E-P,i0,i1,a,b =   5.6160E+05  4.4544E-01  3.4516E+01 -3.8391E-02 -6.0938E-02  2.6539E+02  0.0000E+00    12     1  7.1667E-01  2.8333E-01
time,fu0,fu1,fu =   5.6160E+05 -4.5368E-02 -3.5633E-02 -3.8391E-02  7.166666666666667E-01  2.833333333333333E-01
 cg2d: Sum(rhs),rhsMax =  -8.06875399828044E-13  9.25214403713225E+00
time,SST,SSS,fu,fv,Q,E-P,i0,i1,a,b =   6.0480E+05  4.7561E-01  3.4527E+01 -3.8229E-02 -6.0721E-02  2.6541E+02  0.0000E+00    12     1  7.3333E-01  2.6667E-01
time,fu0,fu1,fu =   6.0480E+05 -4.5368E-02 -3.5633E-02 -3.8229E-02  7.333333333333333E-01  2.666666666666667E-01
 cg2d: Sum(rhs),rhsMax =  -9.95779847468015E-13  9.75412758742916E+00
time,SST,SSS,fu,fv,Q,E-P,i0,i1,a,b =   6.4800E+05  5.0579E-01  3.4539E+01 -3.8067E-02 -6.0505E-02  2.6543E+02  0.0000E+00    12     1  7.5000E-01  2.5000E-01
time,fu0,fu1,fu =   6.4800E+05 -4.5368E-02 -3.5633E-02 -3.8067E-02  7.500000000000000E-01  2.500000000000000E-01
 cg2d: Sum(rhs),rhsMax =  -5.59292195889682E-13  1.00472791850534E+01
time,SST,SSS,fu,fv,Q,E-P,i0,i1,a,b =   6.9120E+05  5.3596E-01  3.4551E+01 -3.7904E-02 -6.0288E-02  2.6546E+02  0.0000E+00    12     1  7.6667E-01  2.3333E-01
time,fu0,fu1,fu =   6.9120E+05 -4.5368E-02 -3.5633E-02 -3.7904E-02  7.666666666666667E-01  2.333333333333333E-01
 cg2d: Sum(rhs),rhsMax =  -9.50628464835290E-13  1.01282964952821E+01
time,SST,SSS,fu,fv,Q,E-P,i0,i1,a,b =   7.3440E+05  5.6614E-01  3.4563E+01 -3.7742E-02 -6.0072E-02  2.6548E+02  0.0000E+00    12     1  7.8333E-01  2.1667E-01
time,fu0,fu1,fu =   7.3440E+05 -4.5368E-02 -3.5633E-02 -3.7742E-02  7.833333333333333E-01  2.166666666666667E-01
 cg2d: Sum(rhs),rhsMax =  -9.42693839656172E-13  1.00066236471320E+01
time,SST,SSS,fu,fv,Q,E-P,i0,i1,a,b =   7.7760E+05  5.9632E-01  3.4574E+01 -3.7580E-02 -5.9855E-02  2.6550E+02  0.0000E+00    12     1  8.0000E-01  2.0000E-01
time,fu0,fu1,fu =   7.7760E+05 -4.5368E-02 -3.5633E-02 -3.7580E-02  8.000000000000000E-01  2.000000000000000E-01
 cg2d: Sum(rhs),rhsMax =  -7.33786295614713E-13  9.70409645617043E+00
time,SST,SSS,fu,fv,Q,E-P,i0,i1,a,b =   8.2080E+05  6.2649E-01  3.4586E+01 -3.7418E-02 -5.9638E-02  2.6552E+02  0.0000E+00    12     1  8.1667E-01  1.8333E-01
time,fu0,fu1,fu =   8.2080E+05 -4.5368E-02 -3.5633E-02 -3.7418E-02  8.166666666666667E-01  1.833333333333333E-01
 cg2d: Sum(rhs),rhsMax =  -1.15320773763639E-12  9.47667283578001E+00
time,SST,SSS,fu,fv,Q,E-P,i0,i1,a,b =   8.6400E+05  6.5667E-01  3.4598E+01 -3.7255E-02 -5.9422E-02  2.6555E+02  0.0000E+00    12     1  8.3333E-01  1.6667E-01
time,fu0,fu1,fu =   8.6400E+05 -4.5368E-02 -3.5633E-02 -3.7255E-02  8.333333333333334E-01  1.666666666666666E-01
 cg2d: Sum(rhs),rhsMax =  -7.68983834942283E-13  1.03748401635909E+01
time,SST,SSS,fu,fv,Q,E-P,i0,i1,a,b =   9.0720E+05  6.8684E-01  3.4609E+01 -3.7093E-02 -5.9205E-02  2.6557E+02  0.0000E+00    12     1  8.5000E-01  1.5000E-01
time,fu0,fu1,fu =   9.0720E+05 -4.5368E-02 -3.5633E-02 -3.7093E-02  8.500000000000000E-01  1.500000000000000E-01
 cg2d: Sum(rhs),rhsMax =  -8.32259608452013E-13  1.11482726022290E+01
time,SST,SSS,fu,fv,Q,E-P,i0,i1,a,b =   9.5040E+05  7.1702E-01  3.4621E+01 -3.6931E-02 -5.8989E-02  2.6559E+02  0.0000E+00    12     1  8.6667E-01  1.3333E-01
time,fu0,fu1,fu =   9.5040E+05 -4.5368E-02 -3.5633E-02 -3.6931E-02  8.666666666666667E-01  1.333333333333333E-01
 cg2d: Sum(rhs),rhsMax =  -7.50698114782011E-13  1.17644190526986E+01
time,SST,SSS,fu,fv,Q,E-P,i0,i1,a,b =   9.9360E+05  7.4719E-01  3.4633E+01 -3.6769E-02 -5.8772E-02  2.6561E+02  0.0000E+00    12     1  8.8333E-01  1.1667E-01
time,fu0,fu1,fu =   9.9360E+05 -4.5368E-02 -3.5633E-02 -3.6769E-02  8.833333333333333E-01  1.166666666666667E-01
 cg2d: Sum(rhs),rhsMax =  -6.53890136481650E-13  1.21959720875421E+01
time,SST,SSS,fu,fv,Q,E-P,i0,i1,a,b =   1.0368E+06  7.7737E-01  3.4644E+01 -3.6606E-02 -5.8556E-02  2.6564E+02  0.0000E+00    12     1  9.0000E-01  1.0000E-01
time,fu0,fu1,fu =   1.0368E+06 -4.5368E-02 -3.5633E-02 -3.6606E-02  9.000000000000000E-01  9.999999999999998E-02
 cg2d: Sum(rhs),rhsMax =  -8.53086698504590E-13  1.24221987652398E+01
time,SST,SSS,fu,fv,Q,E-P,i0,i1,a,b =   1.0800E+06  8.0755E-01  3.4656E+01 -3.6444E-02 -5.8339E-02  2.6566E+02  0.0000E+00    12     1  9.1667E-01  8.3333E-02
time,fu0,fu1,fu =   1.0800E+06 -4.5368E-02 -3.5633E-02 -3.6444E-02  9.166666666666666E-01  8.333333333333337E-02
 cg2d: Sum(rhs),rhsMax =  -9.86417544868168E-13  1.24298971531140E+01
time,SST,SSS,fu,fv,Q,E-P,i0,i1,a,b =   1.1232E+06  8.3772E-01  3.4668E+01 -3.6282E-02 -5.8123E-02  2.6568E+02  0.0000E+00    12     1  9.3333E-01  6.6667E-02
time,fu0,fu1,fu =   1.1232E+06 -4.5368E-02 -3.5633E-02 -3.6282E-02  9.333333333333333E-01  6.666666666666665E-02
 cg2d: Sum(rhs),rhsMax =  -1.31139543668723E-12  1.22139653314387E+01
time,SST,SSS,fu,fv,Q,E-P,i0,i1,a,b =   1.1664E+06  8.6790E-01  3.4679E+01 -3.6120E-02 -5.7906E-02  2.6570E+02  0.0000E+00    12     1  9.5000E-01  5.0000E-02
time,fu0,fu1,fu =   1.1664E+06 -4.5368E-02 -3.5633E-02 -3.6120E-02  9.500000000000000E-01  5.000000000000004E-02
 cg2d: Sum(rhs),rhsMax =  -1.15888201812631E-12  1.17775992285089E+01
time,SST,SSS,fu,fv,Q,E-P,i0,i1,a,b =   1.2096E+06  8.9807E-01  3.4691E+01 -3.5957E-02 -5.7690E-02  2.6573E+02  0.0000E+00    12     1  9.6667E-01  3.3333E-02
time,fu0,fu1,fu =   1.2096E+06 -4.5368E-02 -3.5633E-02 -3.5957E-02  9.666666666666667E-01  3.333333333333333E-02
 cg2d: Sum(rhs),rhsMax =  -1.01385566608769E-12  1.11321543547212E+01
time,SST,SSS,fu,fv,Q,E-P,i0,i1,a,b =   1.2528E+06  9.2825E-01  3.4703E+01 -3.5795E-02 -5.7473E-02  2.6575E+02  0.0000E+00    12     1  9.8333E-01  1.6667E-02
time,fu0,fu1,fu =   1.2528E+06 -4.5368E-02 -3.5633E-02 -3.5795E-02  9.833333333333333E-01  1.666666666666672E-02
 cg2d: Sum(rhs),rhsMax =  -1.21270354869196E-12  1.02967139423326E+01
S/R EXTERNAL_FIELDS_LOAD: Reading new data:    1    2        30  1.296000000000E+06
(PID.TID 0000.0001)  MDSREADFIELD: opening global file: trenberth_taux.bin
(PID.TID 0000.0001)  MDSREADFIELD: opening global file: trenberth_taux.bin
(PID.TID 0000.0001)  MDSREADFIELD: opening global file: trenberth_tauy.bin
(PID.TID 0000.0001)  MDSREADFIELD: opening global file: trenberth_tauy.bin
(PID.TID 0000.0001)  MDSREADFIELD: opening global file: ncep_qnet.bin
(PID.TID 0000.0001)  MDSREADFIELD: opening global file: ncep_qnet.bin
(PID.TID 0000.0001)  MDSREADFIELD: opening global file: lev_sst.bin
(PID.TID 0000.0001)  MDSREADFIELD: opening global file: lev_sst.bin
(PID.TID 0000.0001)  MDSREADFIELD: opening global file: lev_sss.bin
(PID.TID 0000.0001)  MDSREADFIELD: opening global file: lev_sss.bin
time,SST,SSS,fu,fv,Q,E-P,i0,i1,a,b =   1.2960E+06  9.5843E-01  3.4715E+01 -3.5633E-02 -5.7257E-02  2.6577E+02  0.0000E+00     1     2  0.0000E+00  1.0000E+00
time,fu0,fu1,fu =   1.2960E+06 -3.5633E-02 -1.4435E-02 -3.5633E-02  0.000000000000000E+00  1.000000000000000E+00
 cg2d: Sum(rhs),rhsMax =  -9.77776887234327E-13  9.29740447830929E+00
time,SST,SSS,fu,fv,Q,E-P,i0,i1,a,b =   1.3392E+06  9.3359E-01  3.4710E+01 -3.5280E-02 -5.6596E-02  2.6535E+02  0.0000E+00     1     2  1.6667E-02  9.8333E-01
time,fu0,fu1,fu =   1.3392E+06 -3.5633E-02 -1.4435E-02 -3.5280E-02  1.666666666666667E-02  9.833333333333333E-01
 cg2d: Sum(rhs),rhsMax =  -1.69077252198946E-12  9.11143504680530E+00
time,SST,SSS,fu,fv,Q,E-P,i0,i1,a,b =   1.3824E+06  9.0875E-01  3.4705E+01 -3.4926E-02 -5.5936E-02  2.6493E+02  0.0000E+00     1     2  3.3333E-02  9.6667E-01
time,fu0,fu1,fu =   1.3824E+06 -3.5633E-02 -1.4435E-02 -3.4926E-02  3.333333333333333E-02  9.666666666666667E-01
 cg2d: Sum(rhs),rhsMax =  -1.43982742395465E-12  9.23484312292805E+00
time,SST,SSS,fu,fv,Q,E-P,i0,i1,a,b =   1.4256E+06  8.8391E-01  3.4700E+01 -3.4573E-02 -5.5276E-02  2.6451E+02  0.0000E+00     1     2  5.0000E-02  9.5000E-01
time,fu0,fu1,fu =   1.4256E+06 -3.5633E-02 -1.4435E-02 -3.4573E-02  5.000000000000000E-02  9.500000000000000E-01
 cg2d: Sum(rhs),rhsMax =  -1.28025368084650E-12  9.27184087685194E+00
time,SST,SSS,fu,fv,Q,E-P,i0,i1,a,b =   1.4688E+06  8.5907E-01  3.4695E+01 -3.4220E-02 -5.4615E-02  2.6408E+02  0.0000E+00     1     2  6.6667E-02  9.3333E-01
time,fu0,fu1,fu =   1.4688E+06 -3.5633E-02 -1.4435E-02 -3.4220E-02  6.666666666666667E-02  9.333333333333333E-01
 cg2d: Sum(rhs),rhsMax =  -8.80122363877689E-13  9.21972070819477E+00
time,SST,SSS,fu,fv,Q,E-P,i0,i1,a,b =   1.5120E+06  8.3424E-01  3.4690E+01 -3.3866E-02 -5.3955E-02  2.6366E+02  0.0000E+00     1     2  8.3333E-02  9.1667E-01
time,fu0,fu1,fu =   1.5120E+06 -3.5633E-02 -1.4435E-02 -3.3866E-02  8.333333333333333E-02  9.166666666666666E-01
 cg2d: Sum(rhs),rhsMax =  -9.64901769595627E-13  9.07797514894407E+00
time,SST,SSS,fu,fv,Q,E-P,i0,i1,a,b =   1.5552E+06  8.0940E-01  3.4685E+01 -3.3513E-02 -5.3295E-02  2.6324E+02  0.0000E+00     1     2  1.0000E-01  9.0000E-01
time,fu0,fu1,fu =   1.5552E+06 -3.5633E-02 -1.4435E-02 -3.3513E-02  1.000000000000000E-01  9.000000000000000E-01
 cg2d: Sum(rhs),rhsMax =  -1.08107967022875E-12  8.84823931929408E+00
time,SST,SSS,fu,fv,Q,E-P,i0,i1,a,b =   1.5984E+06  7.8456E-01  3.4680E+01 -3.3160E-02 -5.2634E-02  2.6282E+02  0.0000E+00     1     2  1.1667E-01  8.8333E-01
time,fu0,fu1,fu =   1.5984E+06 -3.5633E-02 -1.4435E-02 -3.3160E-02  1.166666666666667E-01  8.833333333333333E-01
 cg2d: Sum(rhs),rhsMax =  -1.24318610961183E-12  8.53412765044123E+00
time,SST,SSS,fu,fv,Q,E-P,i0,i1,a,b =   1.6416E+06  7.5972E-01  3.4675E+01 -3.2807E-02 -5.1974E-02  2.6240E+02  0.0000E+00     1     2  1.3333E-01  8.6667E-01
time,fu0,fu1,fu =   1.6416E+06 -3.5633E-02 -1.4435E-02 -3.2807E-02  1.333333333333333E-01  8.666666666666667E-01
 cg2d: Sum(rhs),rhsMax =  -5.11271580627692E-13  8.14100424312470E+00
time,SST,SSS,fu,fv,Q,E-P,i0,i1,a,b =   1.6848E+06  7.3488E-01  3.4671E+01 -3.2453E-02 -5.1313E-02  2.6198E+02  0.0000E+00     1     2  1.5000E-01  8.5000E-01
time,fu0,fu1,fu =   1.6848E+06 -3.5633E-02 -1.4435E-02 -3.2453E-02  1.500000000000000E-01  8.500000000000000E-01
 cg2d: Sum(rhs),rhsMax =  -8.54795401128428E-13  7.67572566966599E+00
time,SST,SSS,fu,fv,Q,E-P,i0,i1,a,b =   1.7280E+06  7.1005E-01  3.4666E+01 -3.2100E-02 -5.0653E-02  2.6156E+02  0.0000E+00     1     2  1.6667E-01  8.3333E-01
time,fu0,fu1,fu =   1.7280E+06 -3.5633E-02 -1.4435E-02 -3.2100E-02  1.666666666666667E-01  8.333333333333334E-01
 cg2d: Sum(rhs),rhsMax =  -6.30329122230933E-13  7.14638778751150E+00
time,SST,SSS,fu,fv,Q,E-P,i0,i1,a,b =   1.7712E+06  6.8521E-01  3.4661E+01 -3.1747E-02 -4.9993E-02  2.6113E+02  0.0000E+00     1     2  1.8333E-01  8.1667E-01
time,fu0,fu1,fu =   1.7712E+06 -3.5633E-02 -1.4435E-02 -3.1747E-02  1.833333333333333E-01  8.166666666666667E-01
 cg2d: Sum(rhs),rhsMax =  -6.48779641121422E-13  7.16032443393138E+00
time,SST,SSS,fu,fv,Q,E-P,i0,i1,a,b =   1.8144E+06  6.6037E-01  3.4656E+01 -3.1393E-02 -4.9332E-02  2.6071E+02  0.0000E+00     1     2  2.0000E-01  8.0000E-01
time,fu0,fu1,fu =   1.8144E+06 -3.5633E-02 -1.4435E-02 -3.1393E-02  2.000000000000000E-01  8.000000000000000E-01
 cg2d: Sum(rhs),rhsMax =  -1.74991965362636E-13  7.19604411743549E+00
time,SST,SSS,fu,fv,Q,E-P,i0,i1,a,b =   1.8576E+06  6.3553E-01  3.4651E+01 -3.1040E-02 -4.8672E-02  2.6029E+02  0.0000E+00     1     2  2.1667E-01  7.8333E-01
time,fu0,fu1,fu =   1.8576E+06 -3.5633E-02 -1.4435E-02 -3.1040E-02  2.166666666666667E-01  7.833333333333333E-01
 cg2d: Sum(rhs),rhsMax =  -6.13481487832246E-13  7.21623310024422E+00
time,SST,SSS,fu,fv,Q,E-P,i0,i1,a,b =   1.9008E+06  6.1069E-01  3.4646E+01 -3.0687E-02 -4.8012E-02  2.5987E+02  0.0000E+00     1     2  2.3333E-01  7.6667E-01
time,fu0,fu1,fu =   1.9008E+06 -3.5633E-02 -1.4435E-02 -3.0687E-02  2.333333333333333E-01  7.666666666666666E-01
 cg2d: Sum(rhs),rhsMax =  -9.12020459153950E-13  7.36407436363192E+00
time,SST,SSS,fu,fv,Q,E-P,i0,i1,a,b =   1.9440E+06  5.8585E-01  3.4641E+01 -3.0333E-02 -4.7351E-02  2.5945E+02  0.0000E+00     1     2  2.5000E-01  7.5000E-01
time,fu0,fu1,fu =   1.9440E+06 -3.5633E-02 -1.4435E-02 -3.0333E-02  2.500000000000000E-01  7.500000000000000E-01
 cg2d: Sum(rhs),rhsMax =  -2.73808753448179E-13  7.63411997016480E+00
time,SST,SSS,fu,fv,Q,E-P,i0,i1,a,b =   1.9872E+06  5.6102E-01  3.4636E+01 -2.9980E-02 -4.6691E-02  2.5903E+02  0.0000E+00     1     2  2.6667E-01  7.3333E-01
time,fu0,fu1,fu =   1.9872E+06 -3.5633E-02 -1.4435E-02 -2.9980E-02  2.666666666666667E-01  7.333333333333334E-01
 cg2d: Sum(rhs),rhsMax =   2.36269337428041E-14  7.83757970972505E+00
time,SST,SSS,fu,fv,Q,E-P,i0,i1,a,b =   2.0304E+06  5.3618E-01  3.4631E+01 -2.9627E-02 -4.6031E-02  2.5861E+02  0.0000E+00     1     2  2.8333E-01  7.1667E-01
time,fu0,fu1,fu =   2.0304E+06 -3.5633E-02 -1.4435E-02 -2.9627E-02  2.833333333333333E-01  7.166666666666667E-01
 cg2d: Sum(rhs),rhsMax =  -1.62946045545453E-13  7.97661649749668E+00
time,SST,SSS,fu,fv,Q,E-P,i0,i1,a,b =   2.0736E+06  5.1134E-01  3.4627E+01 -2.9273E-02 -4.5370E-02  2.5818E+02  0.0000E+00     1     2  3.0000E-01  7.0000E-01
time,fu0,fu1,fu =   2.0736E+06 -3.5633E-02 -1.4435E-02 -2.9273E-02  3.000000000000000E-01  7.000000000000000E-01
 cg2d: Sum(rhs),rhsMax =  -1.24379673227537E-13  8.05769528537582E+00
time,SST,SSS,fu,fv,Q,E-P,i0,i1,a,b =   2.1168E+06  4.8650E-01  3.4622E+01 -2.8920E-02 -4.4710E-02  2.5776E+02  0.0000E+00     1     2  3.1667E-01  6.8333E-01
time,fu0,fu1,fu =   2.1168E+06 -3.5633E-02 -1.4435E-02 -2.8920E-02  3.166666666666667E-01  6.833333333333333E-01
 cg2d: Sum(rhs),rhsMax =   2.15813478199323E-13  8.09041694797477E+00
time,SST,SSS,fu,fv,Q,E-P,i0,i1,a,b =   2.1600E+06  4.6166E-01  3.4617E+01 -2.8567E-02 -4.4050E-02  2.5734E+02  0.0000E+00     1     2  3.3333E-01  6.6667E-01
time,fu0,fu1,fu =   2.1600E+06 -3.5633E-02 -1.4435E-02 -2.8567E-02  3.333333333333333E-01  6.666666666666667E-01
 cg2d: Sum(rhs),rhsMax =  -1.54744272951035E-13  8.08616437912501E+00
time,SST,SSS,fu,fv,Q,E-P,i0,i1,a,b =   2.2032E+06  4.3683E-01  3.4612E+01 -2.8214E-02 -4.3389E-02  2.5692E+02  0.0000E+00     1     2  3.5000E-01  6.5000E-01
time,fu0,fu1,fu =   2.2032E+06 -3.5633E-02 -1.4435E-02 -2.8214E-02  3.500000000000000E-01  6.500000000000000E-01
 cg2d: Sum(rhs),rhsMax =   9.77155856229928E-13  8.05674108674484E+00
time,SST,SSS,fu,fv,Q,E-P,i0,i1,a,b =   2.2464E+06  4.1199E-01  3.4607E+01 -2.7860E-02 -4.2729E-02  2.5650E+02  0.0000E+00     1     2  3.6667E-01  6.3333E-01
time,fu0,fu1,fu =   2.2464E+06 -3.5633E-02 -1.4435E-02 -2.7860E-02  3.666666666666666E-01  6.333333333333333E-01
 cg2d: Sum(rhs),rhsMax =   3.51094153749898E-13  8.18299903790893E+00
time,SST,SSS,fu,fv,Q,E-P,i0,i1,a,b =   2.2896E+06  3.8715E-01  3.4602E+01 -2.7507E-02 -4.2069E-02  2.5608E+02  0.0000E+00     1     2  3.8333E-01  6.1667E-01
time,fu0,fu1,fu =   2.2896E+06 -3.5633E-02 -1.4435E-02 -2.7507E-02  3.833333333333334E-01  6.166666666666667E-01
 cg2d: Sum(rhs),rhsMax =   2.60631793924659E-13  9.40876964847958E+00
time,SST,SSS,fu,fv,Q,E-P,i0,i1,a,b =   2.3328E+06  3.6231E-01  3.4597E+01 -2.7154E-02 -4.1408E-02  2.5565E+02  0.0000E+00     1     2  4.0000E-01  6.0000E-01
time,fu0,fu1,fu =   2.3328E+06 -3.5633E-02 -1.4435E-02 -2.7154E-02  4.000000000000000E-01  6.000000000000000E-01
 cg2d: Sum(rhs),rhsMax =   8.21377688087210E-13  1.05293280195721E+01
time,SST,SSS,fu,fv,Q,E-P,i0,i1,a,b =   2.3760E+06  3.3747E-01  3.4592E+01 -2.6800E-02 -4.0748E-02  2.5523E+02  0.0000E+00     1     2  4.1667E-01  5.8333E-01
time,fu0,fu1,fu =   2.3760E+06 -3.5633E-02 -1.4435E-02 -2.6800E-02  4.166666666666667E-01  5.833333333333333E-01
 cg2d: Sum(rhs),rhsMax =   1.40624317745974E-12  1.15144713398793E+01
time,SST,SSS,fu,fv,Q,E-P,i0,i1,a,b =   2.4192E+06  3.1264E-01  3.4587E+01 -2.6447E-02 -4.0088E-02  2.5481E+02  0.0000E+00     1     2  4.3333E-01  5.6667E-01
time,fu0,fu1,fu =   2.4192E+06 -3.5633E-02 -1.4435E-02 -2.6447E-02  4.333333333333333E-01  5.666666666666667E-01
 cg2d: Sum(rhs),rhsMax =   1.19135257214964E-12  1.23395344882040E+01
time,SST,SSS,fu,fv,Q,E-P,i0,i1,a,b =   2.4624E+06  2.8780E-01  3.4582E+01 -2.6094E-02 -3.9427E-02  2.5439E+02  0.0000E+00     1     2  4.5000E-01  5.5000E-01
time,fu0,fu1,fu =   2.4624E+06 -3.5633E-02 -1.4435E-02 -2.6094E-02  4.500000000000000E-01  5.500000000000000E-01
 cg2d: Sum(rhs),rhsMax =   2.04077726939644E-12  1.29859656251116E+01
time,SST,SSS,fu,fv,Q,E-P,i0,i1,a,b =   2.5056E+06  2.6296E-01  3.4578E+01 -2.5740E-02 -3.8767E-02  2.5397E+02  0.0000E+00     1     2  4.6667E-01  5.3333E-01
time,fu0,fu1,fu =   2.5056E+06 -3.5633E-02 -1.4435E-02 -2.5740E-02  4.666666666666667E-01  5.333333333333333E-01
 cg2d: Sum(rhs),rhsMax =   2.19092105568919E-12  1.34416463490861E+01
time,SST,SSS,fu,fv,Q,E-P,i0,i1,a,b =   2.5488E+06  2.3812E-01  3.4573E+01 -2.5387E-02 -3.8106E-02  2.5355E+02  0.0000E+00     1     2  4.8333E-01  5.1667E-01
time,fu0,fu1,fu =   2.5488E+06 -3.5633E-02 -1.4435E-02 -2.5387E-02  4.833333333333333E-01  5.166666666666666E-01
 cg2d: Sum(rhs),rhsMax =   2.20579110532526E-12  1.37009641669029E+01
time,SST,SSS,fu,fv,Q,E-P,i0,i1,a,b =   2.5920E+06  2.1328E-01  3.4568E+01 -2.5034E-02 -3.7446E-02  2.5313E+02  0.0000E+00     1     2  5.0000E-01  5.0000E-01
time,fu0,fu1,fu =   2.5920E+06 -3.5633E-02 -1.4435E-02 -2.5034E-02  5.000000000000000E-01  5.000000000000000E-01
 cg2d: Sum(rhs),rhsMax =   2.68520622404012E-12  1.37646539938083E+01
time,SST,SSS,fu,fv,Q,E-P,i0,i1,a,b =   2.6352E+06  1.8845E-01  3.4563E+01 -2.4681E-02 -3.6786E-02  2.5270E+02  0.0000E+00     1     2  5.1667E-01  4.8333E-01
time,fu0,fu1,fu =   2.6352E+06 -3.5633E-02 -1.4435E-02 -2.4681E-02  5.166666666666667E-01  4.833333333333333E-01
 cg2d: Sum(rhs),rhsMax =   2.82817519403622E-12  1.36394324617495E+01
time,SST,SSS,fu,fv,Q,E-P,i0,i1,a,b =   2.6784E+06  1.6361E-01  3.4558E+01 -2.4327E-02 -3.6125E-02  2.5228E+02  0.0000E+00     1     2  5.3333E-01  4.6667E-01
time,fu0,fu1,fu =   2.6784E+06 -3.5633E-02 -1.4435E-02 -2.4327E-02  5.333333333333333E-01  4.666666666666667E-01
 cg2d: Sum(rhs),rhsMax =   3.15040354914586E-12  1.33374540349376E+01
time,SST,SSS,fu,fv,Q,E-P,i0,i1,a,b =   2.7216E+06  1.3877E-01  3.4553E+01 -2.3974E-02 -3.5465E-02  2.5186E+02  0.0000E+00     1     2  5.5000E-01  4.5000E-01
time,fu0,fu1,fu =   2.7216E+06 -3.5633E-02 -1.4435E-02 -2.3974E-02  5.500000000000000E-01  4.500000000000000E-01
 cg2d: Sum(rhs),rhsMax =   3.31672189712862E-12  1.28756214604387E+01
time,SST,SSS,fu,fv,Q,E-P,i0,i1,a,b =   2.7648E+06  1.1393E-01  3.4548E+01 -2.3621E-02 -3.4805E-02  2.5144E+02  0.0000E+00     1     2  5.6667E-01  4.3333E-01
time,fu0,fu1,fu =   2.7648E+06 -3.5633E-02 -1.4435E-02 -2.3621E-02  5.666666666666667E-01  4.333333333333333E-01
 cg2d: Sum(rhs),rhsMax =   3.42702255462513E-12  1.22747851031081E+01
time,SST,SSS,fu,fv,Q,E-P,i0,i1,a,b =   2.8080E+06  8.9094E-02  3.4543E+01 -2.3267E-02 -3.4144E-02  2.5102E+02  0.0000E+00     1     2  5.8333E-01  4.1667E-01
time,fu0,fu1,fu =   2.8080E+06 -3.5633E-02 -1.4435E-02 -2.3267E-02  5.833333333333334E-01  4.166666666666666E-01
 cg2d: Sum(rhs),rhsMax =   3.14384629440667E-12  1.15588664150395E+01
time,SST,SSS,fu,fv,Q,E-P,i0,i1,a,b =   2.8512E+06  6.4256E-02  3.4538E+01 -2.2914E-02 -3.3484E-02  2.5060E+02  0.0000E+00     1     2  6.0000E-01  4.0000E-01
time,fu0,fu1,fu =   2.8512E+06 -3.5633E-02 -1.4435E-02 -2.2914E-02  6.000000000000000E-01  4.000000000000000E-01
 cg2d: Sum(rhs),rhsMax =   3.94637794665087E-12  1.07539403354917E+01
time,SST,SSS,fu,fv,Q,E-P,i0,i1,a,b =   2.8944E+06  3.9418E-02  3.4534E+01 -2.2561E-02 -3.2824E-02  2.5018E+02  0.0000E+00     1     2  6.1667E-01  3.8333E-01
time,fu0,fu1,fu =   2.8944E+06 -3.5633E-02 -1.4435E-02 -2.2561E-02  6.166666666666667E-01  3.833333333333333E-01
 cg2d: Sum(rhs),rhsMax =   3.92181426223104E-12  9.88730994742754E+00
time,SST,SSS,fu,fv,Q,E-P,i0,i1,a,b =   2.9376E+06  1.4580E-02  3.4529E+01 -2.2207E-02 -3.2163E-02  2.4975E+02  0.0000E+00     1     2  6.3333E-01  3.6667E-01
time,fu0,fu1,fu =   2.9376E+06 -3.5633E-02 -1.4435E-02 -2.2207E-02  6.333333333333333E-01  3.666666666666667E-01
 cg2d: Sum(rhs),rhsMax =   3.81782799818708E-12  8.98660434991358E+00
time,SST,SSS,fu,fv,Q,E-P,i0,i1,a,b =   2.9808E+06 -1.0258E-02  3.4524E+01 -2.1854E-02 -3.1503E-02  2.4933E+02  0.0000E+00     1     2  6.5000E-01  3.5000E-01
time,fu0,fu1,fu =   2.9808E+06 -3.5633E-02 -1.4435E-02 -2.1854E-02  6.500000000000000E-01  3.500000000000000E-01
 cg2d: Sum(rhs),rhsMax =   3.73369390960221E-12  8.07892755116583E+00
time,SST,SSS,fu,fv,Q,E-P,i0,i1,a,b =   3.0240E+06 -3.5096E-02  3.4519E+01 -2.1501E-02 -3.0843E-02  2.4891E+02  0.0000E+00     1     2  6.6667E-01  3.3333E-01
time,fu0,fu1,fu =   3.0240E+06 -3.5633E-02 -1.4435E-02 -2.1501E-02  6.666666666666666E-01  3.333333333333334E-01
 cg2d: Sum(rhs),rhsMax =   3.43072792396981E-12  7.98205113094413E+00
time,SST,SSS,fu,fv,Q,E-P,i0,i1,a,b =   3.0672E+06 -5.9934E-02  3.4514E+01 -2.1147E-02 -3.0182E-02  2.4849E+02  0.0000E+00     1     2  6.8333E-01  3.1667E-01
time,fu0,fu1,fu =   3.0672E+06 -3.5633E-02 -1.4435E-02 -2.1147E-02  6.833333333333333E-01  3.166666666666667E-01
 cg2d: Sum(rhs),rhsMax =   3.50644513424925E-12  8.00388417689159E+00
time,SST,SSS,fu,fv,Q,E-P,i0,i1,a,b =   3.1104E+06 -8.4772E-02  3.4509E+01 -2.0794E-02 -2.9522E-02  2.4807E+02  0.0000E+00     1     2  7.0000E-01  3.0000E-01
time,fu0,fu1,fu =   3.1104E+06 -3.5633E-02 -1.4435E-02 -2.0794E-02  7.000000000000000E-01  3.000000000000000E-01
 cg2d: Sum(rhs),rhsMax =   3.09095804507109E-12  8.02911791318484E+00
time,SST,SSS,fu,fv,Q,E-P,i0,i1,a,b =   3.1536E+06 -1.0961E-01  3.4504E+01 -2.0441E-02 -2.8862E-02  2.4765E+02  0.0000E+00     1     2  7.1667E-01  2.8333E-01
time,fu0,fu1,fu =   3.1536E+06 -3.5633E-02 -1.4435E-02 -2.0441E-02  7.166666666666667E-01  2.833333333333333E-01
 cg2d: Sum(rhs),rhsMax =   3.06390329773976E-12  8.49105103448685E+00
time,SST,SSS,fu,fv,Q,E-P,i0,i1,a,b =   3.1968E+06 -1.3445E-01  3.4499E+01 -2.0088E-02 -2.8201E-02  2.4722E+02  0.0000E+00     1     2  7.3333E-01  2.6667E-01
time,fu0,fu1,fu =   3.1968E+06 -3.5633E-02 -1.4435E-02 -2.0088E-02  7.333333333333333E-01  2.666666666666667E-01
 cg2d: Sum(rhs),rhsMax =   2.72881717222617E-12  8.90375443856866E+00
time,SST,SSS,fu,fv,Q,E-P,i0,i1,a,b =   3.2400E+06 -1.5929E-01  3.4494E+01 -1.9734E-02 -2.7541E-02  2.4680E+02  0.0000E+00     1     2  7.5000E-01  2.5000E-01
time,fu0,fu1,fu =   3.2400E+06 -3.5633E-02 -1.4435E-02 -1.9734E-02  7.500000000000000E-01  2.500000000000000E-01
 cg2d: Sum(rhs),rhsMax =   2.85418910728197E-12  9.21995752446141E+00
time,SST,SSS,fu,fv,Q,E-P,i0,i1,a,b =   3.2832E+06 -1.8412E-01  3.4490E+01 -1.9381E-02 -2.6880E-02  2.4638E+02  0.0000E+00     1     2  7.6667E-01  2.3333E-01
time,fu0,fu1,fu =   3.2832E+06 -3.5633E-02 -1.4435E-02 -1.9381E-02  7.666666666666667E-01  2.333333333333333E-01
 cg2d: Sum(rhs),rhsMax =   2.65262811716127E-12  9.43408891658781E+00
time,SST,SSS,fu,fv,Q,E-P,i0,i1,a,b =   3.3264E+06 -2.0896E-01  3.4485E+01 -1.9028E-02 -2.6220E-02  2.4596E+02  0.0000E+00     1     2  7.8333E-01  2.1667E-01
time,fu0,fu1,fu =   3.3264E+06 -3.5633E-02 -1.4435E-02 -1.9028E-02  7.833333333333333E-01  2.166666666666667E-01
 cg2d: Sum(rhs),rhsMax =   2.38090103188426E-12  9.54305671450154E+00
time,SST,SSS,fu,fv,Q,E-P,i0,i1,a,b =   3.3696E+06 -2.3380E-01  3.4480E+01 -1.8674E-02 -2.5560E-02  2.4554E+02  0.0000E+00     1     2  8.0000E-01  2.0000E-01
time,fu0,fu1,fu =   3.3696E+06 -3.5633E-02 -1.4435E-02 -1.8674E-02  8.000000000000000E-01  2.000000000000000E-01
 cg2d: Sum(rhs),rhsMax =   1.98395466721735E-12  9.54625980631856E+00
time,SST,SSS,fu,fv,Q,E-P,i0,i1,a,b =   3.4128E+06 -2.5864E-01  3.4475E+01 -1.8321E-02 -2.4899E-02  2.4512E+02  0.0000E+00     1     2  8.1667E-01  1.8333E-01
time,fu0,fu1,fu =   3.4128E+06 -3.5633E-02 -1.4435E-02 -1.8321E-02  8.166666666666667E-01  1.833333333333333E-01
 cg2d: Sum(rhs),rhsMax =   2.38616765235733E-12  9.44553374716868E+00
time,SST,SSS,fu,fv,Q,E-P,i0,i1,a,b =   3.4560E+06 -2.8348E-01  3.4470E+01 -1.7968E-02 -2.4239E-02  2.4470E+02  0.0000E+00     1     2  8.3333E-01  1.6667E-01
time,fu0,fu1,fu =   3.4560E+06 -3.5633E-02 -1.4435E-02 -1.7968E-02  8.333333333333334E-01  1.666666666666666E-01
 cg2d: Sum(rhs),rhsMax =   2.62605909240321E-12  9.24503765445439E+00
time,SST,SSS,fu,fv,Q,E-P,i0,i1,a,b =   3.4992E+06 -3.0831E-01  3.4465E+01 -1.7614E-02 -2.3579E-02  2.4427E+02  0.0000E+00     1     2  8.5000E-01  1.5000E-01
time,fu0,fu1,fu =   3.4992E+06 -3.5633E-02 -1.4435E-02 -1.7614E-02  8.500000000000000E-01  1.500000000000000E-01
 cg2d: Sum(rhs),rhsMax =   2.64294142127142E-12  8.95108976893277E+00
time,SST,SSS,fu,fv,Q,E-P,i0,i1,a,b =   3.5424E+06 -3.3315E-01  3.4460E+01 -1.7261E-02 -2.2918E-02  2.4385E+02  0.0000E+00     1     2  8.6667E-01  1.3333E-01
time,fu0,fu1,fu =   3.5424E+06 -3.5633E-02 -1.4435E-02 -1.7261E-02  8.666666666666667E-01  1.333333333333333E-01
 cg2d: Sum(rhs),rhsMax =   3.47789852472857E-12  8.57195997233518E+00
time,SST,SSS,fu,fv,Q,E-P,i0,i1,a,b =   3.5856E+06 -3.5799E-01  3.4455E+01 -1.6908E-02 -2.2258E-02  2.4343E+02  0.0000E+00     1     2  8.8333E-01  1.1667E-01
time,fu0,fu1,fu =   3.5856E+06 -3.5633E-02 -1.4435E-02 -1.6908E-02  8.833333333333333E-01  1.166666666666667E-01
 cg2d: Sum(rhs),rhsMax =   3.83086617983253E-12  8.11762771956993E+00
time,SST,SSS,fu,fv,Q,E-P,i0,i1,a,b =   3.6288E+06 -3.8283E-01  3.4450E+01 -1.6555E-02 -2.1598E-02  2.4301E+02  0.0000E+00     1     2  9.0000E-01  1.0000E-01
time,fu0,fu1,fu =   3.6288E+06 -3.5633E-02 -1.4435E-02 -1.6555E-02  9.000000000000000E-01  9.999999999999998E-02
 cg2d: Sum(rhs),rhsMax =   3.56802087875252E-12  8.02199626746557E+00
time,SST,SSS,fu,fv,Q,E-P,i0,i1,a,b =   3.6720E+06 -4.0767E-01  3.4446E+01 -1.6201E-02 -2.0937E-02  2.4259E+02  0.0000E+00     1     2  9.1667E-01  8.3333E-02
time,fu0,fu1,fu =   3.6720E+06 -3.5633E-02 -1.4435E-02 -1.6201E-02  9.166666666666666E-01  8.333333333333337E-02
 cg2d: Sum(rhs),rhsMax =   3.86241039151969E-12  7.98965232758869E+00
time,SST,SSS,fu,fv,Q,E-P,i0,i1,a,b =   3.7152E+06 -4.3250E-01  3.4441E+01 -1.5848E-02 -2.0277E-02  2.4217E+02  0.0000E+00     1     2  9.3333E-01  6.6667E-02
time,fu0,fu1,fu =   3.7152E+06 -3.5633E-02 -1.4435E-02 -1.5848E-02  9.333333333333333E-01  6.666666666666665E-02
 cg2d: Sum(rhs),rhsMax =   3.73438779899260E-12  7.95826434668644E+00
time,SST,SSS,fu,fv,Q,E-P,i0,i1,a,b =   3.7584E+06 -4.5734E-01  3.4436E+01 -1.5495E-02 -1.9617E-02  2.4175E+02  0.0000E+00     1     2  9.5000E-01  5.0000E-02
time,fu0,fu1,fu =   3.7584E+06 -3.5633E-02 -1.4435E-02 -1.5495E-02  9.500000000000000E-01  5.000000000000004E-02
 cg2d: Sum(rhs),rhsMax =   4.57495152872411E-12  7.92999023840161E+00
time,SST,SSS,fu,fv,Q,E-P,i0,i1,a,b =   3.8016E+06 -4.8218E-01  3.4431E+01 -1.5141E-02 -1.8956E-02  2.4132E+02  0.0000E+00     1     2  9.6667E-01  3.3333E-02
time,fu0,fu1,fu =   3.8016E+06 -3.5633E-02 -1.4435E-02 -1.5141E-02  9.666666666666667E-01  3.333333333333333E-02
 cg2d: Sum(rhs),rhsMax =   4.43041436870573E-12  7.90697486204084E+00
time,SST,SSS,fu,fv,Q,E-P,i0,i1,a,b =   3.8448E+06 -5.0702E-01  3.4426E+01 -1.4788E-02 -1.8296E-02  2.4090E+02  0.0000E+00     1     2  9.8333E-01  1.6667E-02
time,fu0,fu1,fu =   3.8448E+06 -3.5633E-02 -1.4435E-02 -1.4788E-02  9.833333333333333E-01  1.666666666666672E-02
 cg2d: Sum(rhs),rhsMax =   4.29020707848338E-12  7.89125112328966E+00
S/R EXTERNAL_FIELDS_LOAD: Reading new data:    2    3        90  3.888000000000E+06
(PID.TID 0000.0001)  MDSREADFIELD: opening global file: trenberth_taux.bin
(PID.TID 0000.0001)  MDSREADFIELD: opening global file: trenberth_taux.bin
(PID.TID 0000.0001)  MDSREADFIELD: opening global file: trenberth_tauy.bin
(PID.TID 0000.0001)  MDSREADFIELD: opening global file: trenberth_tauy.bin
(PID.TID 0000.0001)  MDSREADFIELD: opening global file: ncep_qnet.bin
(PID.TID 0000.0001)  MDSREADFIELD: opening global file: ncep_qnet.bin
(PID.TID 0000.0001)  MDSREADFIELD: opening global file: lev_sst.bin
(PID.TID 0000.0001)  MDSREADFIELD: opening global file: lev_sst.bin
(PID.TID 0000.0001)  MDSREADFIELD: opening global file: lev_sss.bin
(PID.TID 0000.0001)  MDSREADFIELD: opening global file: lev_sss.bin
time,SST,SSS,fu,fv,Q,E-P,i0,i1,a,b =   3.8880E+06 -5.3186E-01  3.4421E+01 -1.4435E-02 -1.7636E-02  2.4048E+02  0.0000E+00     2     3  0.0000E+00  1.0000E+00
time,fu0,fu1,fu =   3.8880E+06 -1.4435E-02 -2.7199E-02 -1.4435E-02  0.000000000000000E+00  1.000000000000000E+00
 cg2d: Sum(rhs),rhsMax =   4.60428917214983E-12  7.88464116714749E+00
time,SST,SSS,fu,fv,Q,E-P,i0,i1,a,b =   3.9312E+06 -5.2606E-01  3.4424E+01 -1.4647E-02 -1.7351E-02  2.4006E+02  0.0000E+00     2     3  1.6667E-02  9.8333E-01
time,fu0,fu1,fu =   3.9312E+06 -1.4435E-02 -2.7199E-02 -1.4647E-02  1.666666666666667E-02  9.833333333333333E-01
 cg2d: Sum(rhs),rhsMax =   4.22110957298827E-12  8.18557512400995E+00
time,SST,SSS,fu,fv,Q,E-P,i0,i1,a,b =   3.9744E+06 -5.2026E-01  3.4426E+01 -1.4860E-02 -1.7067E-02  2.3964E+02  0.0000E+00     2     3  3.3333E-02  9.6667E-01
time,fu0,fu1,fu =   3.9744E+06 -1.4435E-02 -2.7199E-02 -1.4860E-02  3.333333333333333E-02  9.666666666666667E-01
 cg2d: Sum(rhs),rhsMax =   4.42978986825437E-12  8.65937290165749E+00
time,SST,SSS,fu,fv,Q,E-P,i0,i1,a,b =   4.0176E+06 -5.1446E-01  3.4429E+01 -1.5073E-02 -1.6783E-02  2.3923E+02  0.0000E+00     2     3  5.0000E-02  9.5000E-01
time,fu0,fu1,fu =   4.0176E+06 -1.4435E-02 -2.7199E-02 -1.5073E-02  5.000000000000000E-02  9.500000000000000E-01
 cg2d: Sum(rhs),rhsMax =   3.74703740257942E-12  9.08149159275093E+00
time,SST,SSS,fu,fv,Q,E-P,i0,i1,a,b =   4.0608E+06 -5.0866E-01  3.4432E+01 -1.5286E-02 -1.6498E-02  2.3881E+02  0.0000E+00     2     3  6.6667E-02  9.3333E-01
time,fu0,fu1,fu =   4.0608E+06 -1.4435E-02 -2.7199E-02 -1.5286E-02  6.666666666666667E-02  9.333333333333333E-01
 cg2d: Sum(rhs),rhsMax =   3.19255732961210E-12  9.44424370111448E+00
time,SST,SSS,fu,fv,Q,E-P,i0,i1,a,b =   4.1040E+06 -5.0286E-01  3.4434E+01 -1.5498E-02 -1.6214E-02  2.3839E+02  0.0000E+00     2     3  8.3333E-02  9.1667E-01
time,fu0,fu1,fu =   4.1040E+06 -1.4435E-02 -2.7199E-02 -1.5498E-02  8.333333333333333E-02  9.166666666666666E-01
 cg2d: Sum(rhs),rhsMax =   3.23483601016861E-12  9.74175914288518E+00
time,SST,SSS,fu,fv,Q,E-P,i0,i1,a,b =   4.1472E+06 -4.9706E-01  3.4437E+01 -1.5711E-02 -1.5930E-02  2.3797E+02  0.0000E+00     2     3  1.0000E-01  9.0000E-01
time,fu0,fu1,fu =   4.1472E+06 -1.4435E-02 -2.7199E-02 -1.5711E-02  1.000000000000000E-01  9.000000000000000E-01
 cg2d: Sum(rhs),rhsMax =   3.16754955598242E-12  9.97004063040942E+00
time,SST,SSS,fu,fv,Q,E-P,i0,i1,a,b =   4.1904E+06 -4.9126E-01  3.4440E+01 -1.5924E-02 -1.5646E-02  2.3755E+02  0.0000E+00     2     3  1.1667E-01  8.8333E-01
time,fu0,fu1,fu =   4.1904E+06 -1.4435E-02 -2.7199E-02 -1.5924E-02  1.166666666666667E-01  8.833333333333333E-01
 cg2d: Sum(rhs),rhsMax =   3.16514175979776E-12  1.01269749889254E+01
time,SST,SSS,fu,fv,Q,E-P,i0,i1,a,b =   4.2336E+06 -4.8546E-01  3.4442E+01 -1.6137E-02 -1.5361E-02  2.3714E+02  0.0000E+00     2     3  1.3333E-01  8.6667E-01
time,fu0,fu1,fu =   4.2336E+06 -1.4435E-02 -2.7199E-02 -1.6137E-02  1.333333333333333E-01  8.666666666666667E-01
 cg2d: Sum(rhs),rhsMax =   3.16197762417758E-12  1.02123013095249E+01
time,SST,SSS,fu,fv,Q,E-P,i0,i1,a,b =   4.2768E+06 -4.7966E-01  3.4445E+01 -1.6349E-02 -1.5077E-02  2.3672E+02  0.0000E+00     2     3  1.5000E-01  8.5000E-01
time,fu0,fu1,fu =   4.2768E+06 -1.4435E-02 -2.7199E-02 -1.6349E-02  1.500000000000000E-01  8.500000000000000E-01
 cg2d: Sum(rhs),rhsMax =   2.57759785737832E-12  1.02275375580449E+01
time,SST,SSS,fu,fv,Q,E-P,i0,i1,a,b =   4.3200E+06 -4.7386E-01  3.4447E+01 -1.6562E-02 -1.4793E-02  2.3630E+02  0.0000E+00     2     3  1.6667E-01  8.3333E-01
time,fu0,fu1,fu =   4.3200E+06 -1.4435E-02 -2.7199E-02 -1.6562E-02  1.666666666666667E-01  8.333333333333334E-01
 cg2d: Sum(rhs),rhsMax =   2.45393982911679E-12  1.01758680259234E+01
time,SST,SSS,fu,fv,Q,E-P,i0,i1,a,b =   4.3632E+06 -4.6807E-01  3.4450E+01 -1.6775E-02 -1.4508E-02  2.3588E+02  0.0000E+00     2     3  1.8333E-01  8.1667E-01
time,fu0,fu1,fu =   4.3632E+06 -1.4435E-02 -2.7199E-02 -1.6775E-02  1.833333333333333E-01  8.166666666666667E-01
 cg2d: Sum(rhs),rhsMax =   2.48499831823068E-12  1.00619947917649E+01
time,SST,SSS,fu,fv,Q,E-P,i0,i1,a,b =   4.4064E+06 -4.6227E-01  3.4453E+01 -1.6988E-02 -1.4224E-02  2.3546E+02  0.0000E+00     2     3  2.0000E-01  8.0000E-01
time,fu0,fu1,fu =   4.4064E+06 -1.4435E-02 -2.7199E-02 -1.6988E-02  2.000000000000000E-01  8.000000000000000E-01
 cg2d: Sum(rhs),rhsMax =   2.77632777878623E-12  9.89195713846401E+00
time,SST,SSS,fu,fv,Q,E-P,i0,i1,a,b =   4.4496E+06 -4.5647E-01  3.4455E+01 -1.7200E-02 -1.3940E-02  2.3505E+02  0.0000E+00     2     3  2.1667E-01  7.8333E-01
time,fu0,fu1,fu =   4.4496E+06 -1.4435E-02 -2.7199E-02 -1.7200E-02  2.166666666666667E-01  7.833333333333333E-01
 cg2d: Sum(rhs),rhsMax =   2.73103067938152E-12  9.67292361771451E+00
time,SST,SSS,fu,fv,Q,E-P,i0,i1,a,b =   4.4928E+06 -4.5067E-01  3.4458E+01 -1.7413E-02 -1.3655E-02  2.3463E+02  0.0000E+00     2     3  2.3333E-01  7.6667E-01
time,fu0,fu1,fu =   4.4928E+06 -1.4435E-02 -2.7199E-02 -1.7413E-02  2.333333333333333E-01  7.666666666666666E-01
 cg2d: Sum(rhs),rhsMax =   2.60642896154906E-12  9.41296214456248E+00
time,SST,SSS,fu,fv,Q,E-P,i0,i1,a,b =   4.5360E+06 -4.4487E-01  3.4461E+01 -1.7626E-02 -1.3371E-02  2.3421E+02  0.0000E+00     2     3  2.5000E-01  7.5000E-01
time,fu0,fu1,fu =   4.5360E+06 -1.4435E-02 -2.7199E-02 -1.7626E-02  2.500000000000000E-01  7.500000000000000E-01
 cg2d: Sum(rhs),rhsMax =   2.70812539060472E-12  9.12079410559005E+00
time,SST,SSS,fu,fv,Q,E-P,i0,i1,a,b =   4.5792E+06 -4.3907E-01  3.4463E+01 -1.7838E-02 -1.3087E-02  2.3379E+02  0.0000E+00     2     3  2.6667E-01  7.3333E-01
time,fu0,fu1,fu =   4.5792E+06 -1.4435E-02 -2.7199E-02 -1.7838E-02  2.666666666666667E-01  7.333333333333334E-01
 cg2d: Sum(rhs),rhsMax =   2.76754313910388E-12  8.86256540630887E+00
time,SST,SSS,fu,fv,Q,E-P,i0,i1,a,b =   4.6224E+06 -4.3327E-01  3.4466E+01 -1.8051E-02 -1.2803E-02  2.3337E+02  0.0000E+00     2     3  2.8333E-01  7.1667E-01
time,fu0,fu1,fu =   4.6224E+06 -1.4435E-02 -2.7199E-02 -1.8051E-02  2.833333333333333E-01  7.166666666666667E-01
 cg2d: Sum(rhs),rhsMax =   2.79926082313864E-12  8.89641373753398E+00
time,SST,SSS,fu,fv,Q,E-P,i0,i1,a,b =   4.6656E+06 -4.2747E-01  3.4469E+01 -1.8264E-02 -1.2518E-02  2.3296E+02  0.0000E+00     2     3  3.0000E-01  7.0000E-01
time,fu0,fu1,fu =   4.6656E+06 -1.4435E-02 -2.7199E-02 -1.8264E-02  3.000000000000000E-01  7.000000000000000E-01
 cg2d: Sum(rhs),rhsMax =   2.52887294438509E-12  8.91497210429915E+00
time,SST,SSS,fu,fv,Q,E-P,i0,i1,a,b =   4.7088E+06 -4.2167E-01  3.4471E+01 -1.8477E-02 -1.2234E-02  2.3254E+02  0.0000E+00     2     3  3.1667E-01  6.8333E-01
time,fu0,fu1,fu =   4.7088E+06 -1.4435E-02 -2.7199E-02 -1.8477E-02  3.166666666666667E-01  6.833333333333333E-01
 cg2d: Sum(rhs),rhsMax =   2.30663405043074E-12  8.91793955647196E+00
time,SST,SSS,fu,fv,Q,E-P,i0,i1,a,b =   4.7520E+06 -4.1587E-01  3.4474E+01 -1.8689E-02 -1.1950E-02  2.3212E+02  0.0000E+00     2     3  3.3333E-01  6.6667E-01
time,fu0,fu1,fu =   4.7520E+06 -1.4435E-02 -2.7199E-02 -1.8689E-02  3.333333333333333E-01  6.666666666666667E-01
 cg2d: Sum(rhs),rhsMax =   1.72490494110278E-12  8.90561081994298E+00
time,SST,SSS,fu,fv,Q,E-P,i0,i1,a,b =   4.7952E+06 -4.1007E-01  3.4476E+01 -1.8902E-02 -1.1665E-02  2.3170E+02  0.0000E+00     2     3  3.5000E-01  6.5000E-01
time,fu0,fu1,fu =   4.7952E+06 -1.4435E-02 -2.7199E-02 -1.8902E-02  3.500000000000000E-01  6.500000000000000E-01
 cg2d: Sum(rhs),rhsMax =   2.35469976850311E-12  8.87885337906463E+00
time,SST,SSS,fu,fv,Q,E-P,i0,i1,a,b =   4.8384E+06 -4.0427E-01  3.4479E+01 -1.9115E-02 -1.1381E-02  2.3128E+02  0.0000E+00     2     3  3.6667E-01  6.3333E-01
time,fu0,fu1,fu =   4.8384E+06 -1.4435E-02 -2.7199E-02 -1.9115E-02  3.666666666666666E-01  6.333333333333333E-01
 cg2d: Sum(rhs),rhsMax =   2.41678899115527E-12  8.83905900826770E+00
time,SST,SSS,fu,fv,Q,E-P,i0,i1,a,b =   4.8816E+06 -3.9848E-01  3.4482E+01 -1.9328E-02 -1.1097E-02  2.3087E+02  0.0000E+00     2     3  3.8333E-01  6.1667E-01
time,fu0,fu1,fu =   4.8816E+06 -1.4435E-02 -2.7199E-02 -1.9328E-02  3.833333333333334E-01  6.166666666666667E-01
 cg2d: Sum(rhs),rhsMax =   2.50901383003210E-12  8.78807252840712E+00
time,SST,SSS,fu,fv,Q,E-P,i0,i1,a,b =   4.9248E+06 -3.9268E-01  3.4484E+01 -1.9540E-02 -1.0813E-02  2.3045E+02  0.0000E+00     2     3  4.0000E-01  6.0000E-01
time,fu0,fu1,fu =   4.9248E+06 -1.4435E-02 -2.7199E-02 -1.9540E-02  4.000000000000000E-01  6.000000000000000E-01
 cg2d: Sum(rhs),rhsMax =   2.74236189312660E-12  8.72810172445269E+00
time,SST,SSS,fu,fv,Q,E-P,i0,i1,a,b =   4.9680E+06 -3.8688E-01  3.4487E+01 -1.9753E-02 -1.0528E-02  2.3003E+02  0.0000E+00     2     3  4.1667E-01  5.8333E-01
time,fu0,fu1,fu =   4.9680E+06 -1.4435E-02 -2.7199E-02 -1.9753E-02  4.166666666666667E-01  5.833333333333333E-01
 cg2d: Sum(rhs),rhsMax =   1.63478952597274E-12  8.66161341629478E+00
time,SST,SSS,fu,fv,Q,E-P,i0,i1,a,b =   5.0112E+06 -3.8108E-01  3.4490E+01 -1.9966E-02 -1.0244E-02  2.2961E+02  0.0000E+00     2     3  4.3333E-01  5.6667E-01
time,fu0,fu1,fu =   5.0112E+06 -1.4435E-02 -2.7199E-02 -1.9966E-02  4.333333333333333E-01  5.666666666666667E-01
 cg2d: Sum(rhs),rhsMax =   2.26609009335021E-12  8.59122132821649E+00
time,SST,SSS,fu,fv,Q,E-P,i0,i1,a,b =   5.0544E+06 -3.7528E-01  3.4492E+01 -2.0179E-02 -9.9597E-03  2.2919E+02  0.0000E+00     2     3  4.5000E-01  5.5000E-01
time,fu0,fu1,fu =   5.0544E+06 -1.4435E-02 -2.7199E-02 -2.0179E-02  4.500000000000000E-01  5.500000000000000E-01
 cg2d: Sum(rhs),rhsMax =   2.34449959446437E-12  8.77527684111764E+00
time,SST,SSS,fu,fv,Q,E-P,i0,i1,a,b =   5.0976E+06 -3.6948E-01  3.4495E+01 -2.0391E-02 -9.6754E-03  2.2877E+02  0.0000E+00     2     3  4.6667E-01  5.3333E-01
time,fu0,fu1,fu =   5.0976E+06 -1.4435E-02 -2.7199E-02 -2.0391E-02  4.666666666666667E-01  5.333333333333333E-01
 cg2d: Sum(rhs),rhsMax =   1.80648551673102E-12  9.00166235036072E+00
time,SST,SSS,fu,fv,Q,E-P,i0,i1,a,b =   5.1408E+06 -3.6368E-01  3.4497E+01 -2.0604E-02 -9.3911E-03  2.2836E+02  0.0000E+00     2     3  4.8333E-01  5.1667E-01
time,fu0,fu1,fu =   5.1408E+06 -1.4435E-02 -2.7199E-02 -2.0604E-02  4.833333333333333E-01  5.166666666666666E-01
 cg2d: Sum(rhs),rhsMax =   1.60300939189284E-12  9.15305707655141E+00
time,SST,SSS,fu,fv,Q,E-P,i0,i1,a,b =   5.0544E+06 -3.7528E-01  3.4492E+01 -2.0179E-02 -9.9597E-03  2.2919E+02  0.0000E+00     2     3  4.5000E-01  5.5000E-01
time,fu0,fu1,fu =   5.0544E+06 -1.4435E-02 -2.7199E-02 -2.0179E-02  4.500000000000000E-01  5.500000000000000E-01
 cg2d: Sum(rhs),rhsMax =   2.34449959446437E-12  8.77527684111764E+00
time,SST,SSS,fu,fv,Q,E-P,i0,i1,a,b =   5.0976E+06 -3.6948E-01  3.4495E+01 -2.0391E-02 -9.6754E-03  2.2877E+02  0.0000E+00     2     3  4.6667E-01  5.3333E-01
time,fu0,fu1,fu =   5.0976E+06 -1.4435E-02 -2.7199E-02 -2.0391E-02  4.666666666666667E-01  5.333333333333333E-01
 cg2d: Sum(rhs),rhsMax =   1.80648551673102E-12  9.00166235036072E+00
time,SST,SSS,fu,fv,Q,E-P,i0,i1,a,b =   5.1408E+06 -3.6368E-01  3.4497E+01 -2.0604E-02 -9.3911E-03  2.2836E+02  0.0000E+00     2     3  4.8333E-01  5.1667E-01
time,fu0,fu1,fu =   5.1408E+06 -1.4435E-02 -2.7199E-02 -2.0604E-02  4.833333333333333E-01  5.166666666666666E-01
 cg2d: Sum(rhs),rhsMax =   1.62134194958696E-12  9.15305707655140E+00
(PID.TID 0000.0001) // =======================================================
(PID.TID 0000.0001) // Begin MONITOR dynamic field statistics
(PID.TID 0000.0001) // =======================================================
(PID.TID 0000.0001) %MON ad_time_tsnumber             =                   120
(PID.TID 0000.0001) %MON ad_time_secondsf             =   5.1840000000000E+06
(PID.TID 0000.0001) %MON ad_dynstat_adeta_max         =   0.0000000000000E+00
(PID.TID 0000.0001) %MON ad_dynstat_adeta_min         =   0.0000000000000E+00
(PID.TID 0000.0001) %MON ad_dynstat_adeta_mean        =   0.0000000000000E+00
(PID.TID 0000.0001) %MON ad_dynstat_adeta_sd          =   0.0000000000000E+00
(PID.TID 0000.0001) %MON ad_dynstat_adeta_del2        =   0.0000000000000E+00
(PID.TID 0000.0001) %MON ad_dynstat_aduvel_max        =   0.0000000000000E+00
(PID.TID 0000.0001) %MON ad_dynstat_aduvel_min        =   0.0000000000000E+00
(PID.TID 0000.0001) %MON ad_dynstat_aduvel_mean       =   0.0000000000000E+00
(PID.TID 0000.0001) %MON ad_dynstat_aduvel_sd         =   0.0000000000000E+00
(PID.TID 0000.0001) %MON ad_dynstat_aduvel_del2       =   0.0000000000000E+00
(PID.TID 0000.0001) %MON ad_dynstat_advvel_max        =   4.8059096174035E-03
(PID.TID 0000.0001) %MON ad_dynstat_advvel_min        =   0.0000000000000E+00
(PID.TID 0000.0001) %MON ad_dynstat_advvel_mean       =   4.8254629521295E-06
(PID.TID 0000.0001) %MON ad_dynstat_advvel_sd         =   1.3910533803722E-04
(PID.TID 0000.0001) %MON ad_dynstat_advvel_del2       =   9.4025033809260E-06
(PID.TID 0000.0001) %MON ad_dynstat_adwvel_max        =   0.0000000000000E+00
(PID.TID 0000.0001) %MON ad_dynstat_adwvel_min        =   0.0000000000000E+00
(PID.TID 0000.0001) %MON ad_dynstat_adwvel_mean       =   0.0000000000000E+00
(PID.TID 0000.0001) %MON ad_dynstat_adwvel_sd         =   0.0000000000000E+00
(PID.TID 0000.0001) %MON ad_dynstat_adwvel_del2       =   0.0000000000000E+00
(PID.TID 0000.0001) %MON ad_dynstat_adtheta_max       =   0.0000000000000E+00
(PID.TID 0000.0001) %MON ad_dynstat_adtheta_min       =  -9.7611832278839E-07
(PID.TID 0000.0001) %MON ad_dynstat_adtheta_mean      =  -1.8413215851985E-09
(PID.TID 0000.0001) %MON ad_dynstat_adtheta_sd        =   3.9714937894531E-08
(PID.TID 0000.0001) %MON ad_dynstat_adtheta_del2      =   1.8565361711799E-09
(PID.TID 0000.0001) %MON ad_dynstat_adsalt_max        =   0.0000000000000E+00
(PID.TID 0000.0001) %MON ad_dynstat_adsalt_min        =   0.0000000000000E+00
(PID.TID 0000.0001) %MON ad_dynstat_adsalt_mean       =   0.0000000000000E+00
(PID.TID 0000.0001) %MON ad_dynstat_adsalt_sd         =   0.0000000000000E+00
(PID.TID 0000.0001) %MON ad_dynstat_adsalt_del2       =   0.0000000000000E+00
(PID.TID 0000.0001) %MON ad_dynstat_adsst_max         =   0.0000000000000E+00
(PID.TID 0000.0001) %MON ad_dynstat_adsst_min         =  -2.5300105780386E-07
(PID.TID 0000.0001) %MON ad_dynstat_adsst_mean        =  -4.0936582693825E-09
(PID.TID 0000.0001) %MON ad_dynstat_adsst_sd          =   3.1920868321755E-08
(PID.TID 0000.0001) %MON ad_dynstat_adsst_del2        =   1.7486034232665E-09
(PID.TID 0000.0001) %MON ad_dynstat_adsss_max         =   0.0000000000000E+00
(PID.TID 0000.0001) %MON ad_dynstat_adsss_min         =   0.0000000000000E+00
(PID.TID 0000.0001) %MON ad_dynstat_adsss_mean        =   0.0000000000000E+00
(PID.TID 0000.0001) %MON ad_dynstat_adsss_sd          =   0.0000000000000E+00
(PID.TID 0000.0001) %MON ad_dynstat_adsss_del2        =   0.0000000000000E+00
(PID.TID 0000.0001) %MON ad_extforcing_adqnet_max     =   0.0000000000000E+00
(PID.TID 0000.0001) %MON ad_extforcing_adqnet_min     =   0.0000000000000E+00
(PID.TID 0000.0001) %MON ad_extforcing_adqnet_mean    =   0.0000000000000E+00
(PID.TID 0000.0001) %MON ad_extforcing_adqnet_sd      =   0.0000000000000E+00
(PID.TID 0000.0001) %MON ad_extforcing_adqnet_del2    =   0.0000000000000E+00
(PID.TID 0000.0001) %MON ad_extforcing_adempmr_max    =   0.0000000000000E+00
(PID.TID 0000.0001) %MON ad_extforcing_adempmr_min    =   0.0000000000000E+00
(PID.TID 0000.0001) %MON ad_extforcing_adempmr_mean   =   0.0000000000000E+00
(PID.TID 0000.0001) %MON ad_extforcing_adempmr_sd     =   0.0000000000000E+00
(PID.TID 0000.0001) %MON ad_extforcing_adempmr_del2   =   0.0000000000000E+00
(PID.TID 0000.0001) %MON ad_extforcing_adfu_max       =   0.0000000000000E+00
(PID.TID 0000.0001) %MON ad_extforcing_adfu_min       =   0.0000000000000E+00
(PID.TID 0000.0001) %MON ad_extforcing_adfu_mean      =   0.0000000000000E+00
(PID.TID 0000.0001) %MON ad_extforcing_adfu_sd        =   0.0000000000000E+00
(PID.TID 0000.0001) %MON ad_extforcing_adfu_del2      =   0.0000000000000E+00
(PID.TID 0000.0001) %MON ad_extforcing_adfv_max       =   0.0000000000000E+00
(PID.TID 0000.0001) %MON ad_extforcing_adfv_min       =   0.0000000000000E+00
(PID.TID 0000.0001) %MON ad_extforcing_adfv_mean      =   0.0000000000000E+00
(PID.TID 0000.0001) %MON ad_extforcing_adfv_sd        =   0.0000000000000E+00
(PID.TID 0000.0001) %MON ad_extforcing_adfv_del2      =   0.0000000000000E+00
(PID.TID 0000.0001) %MON ad_advcfl_aduvel_max         =   0.0000000000000E+00
(PID.TID 0000.0001) %MON ad_advcfl_advvel_max         =   4.6685558056897E-04
(PID.TID 0000.0001) %MON ad_advcfl_adwvel_max         =   0.0000000000000E+00
(PID.TID 0000.0001) %MON ad_advcfl_adW_hf_max         =   0.0000000000000E+00
(PID.TID 0000.0001) // =======================================================
(PID.TID 0000.0001) // End MONITOR dynamic field statistics
(PID.TID 0000.0001) // =======================================================
 cg2d: Sum(rhs),rhsMax =   0.00000000000000E+00  2.86375663715643E-09
(PID.TID 0000.0001) // =======================================================
(PID.TID 0000.0001) // Begin MONITOR dynamic field statistics
(PID.TID 0000.0001) // =======================================================
(PID.TID 0000.0001) %MON ad_time_tsnumber             =                   119
(PID.TID 0000.0001) %MON ad_time_secondsf             =   5.1408000000000E+06
(PID.TID 0000.0001) %MON ad_dynstat_adeta_max         =   2.7697373895575E-04
(PID.TID 0000.0001) %MON ad_dynstat_adeta_min         =  -3.4856842958324E-04
(PID.TID 0000.0001) %MON ad_dynstat_adeta_mean        =   1.2368372369898E-07
(PID.TID 0000.0001) %MON ad_dynstat_adeta_sd          =   3.0241439885568E-05
(PID.TID 0000.0001) %MON ad_dynstat_adeta_del2        =   2.8606771412779E-06
(PID.TID 0000.0001) %MON ad_dynstat_aduvel_max        =   2.5425019979138E-04
(PID.TID 0000.0001) %MON ad_dynstat_aduvel_min        =  -5.8779311299969E-05
(PID.TID 0000.0001) %MON ad_dynstat_aduvel_mean       =   1.1470516896859E-07
(PID.TID 0000.0001) %MON ad_dynstat_aduvel_sd         =   5.1102964793873E-06
(PID.TID 0000.0001) %MON ad_dynstat_aduvel_del2       =   2.4224523057480E-07
(PID.TID 0000.0001) %MON ad_dynstat_advvel_max        =   9.3204560799971E-03
(PID.TID 0000.0001) %MON ad_dynstat_advvel_min        =  -7.9709190691284E-04
(PID.TID 0000.0001) %MON ad_dynstat_advvel_mean       =   9.0434733946914E-06
(PID.TID 0000.0001) %MON ad_dynstat_advvel_sd         =   2.7655933337665E-04
(PID.TID 0000.0001) %MON ad_dynstat_advvel_del2       =   2.2250034001606E-05
(PID.TID 0000.0001) %MON ad_dynstat_adwvel_max        =   1.3044955826187E-03
(PID.TID 0000.0001) %MON ad_dynstat_adwvel_min        =  -2.8454614059119E-04
(PID.TID 0000.0001) %MON ad_dynstat_adwvel_mean       =   1.8063132994352E-06
(PID.TID 0000.0001) %MON ad_dynstat_adwvel_sd         =   3.8271122054250E-05
(PID.TID 0000.0001) %MON ad_dynstat_adwvel_del2       =   1.9509524491739E-06
(PID.TID 0000.0001) %MON ad_dynstat_adtheta_max       =   1.4373069051753E-05
(PID.TID 0000.0001) %MON ad_dynstat_adtheta_min       =  -1.4579816881415E-05
(PID.TID 0000.0001) %MON ad_dynstat_adtheta_mean      =  -3.8642224334259E-09
(PID.TID 0000.0001) %MON ad_dynstat_adtheta_sd        =   1.3885416202905E-06
(PID.TID 0000.0001) %MON ad_dynstat_adtheta_del2      =   1.4521983722302E-07
(PID.TID 0000.0001) %MON ad_dynstat_adsalt_max        =   6.9537597954188E-05
(PID.TID 0000.0001) %MON ad_dynstat_adsalt_min        =  -7.0665738499424E-05
(PID.TID 0000.0001) %MON ad_dynstat_adsalt_mean       =  -1.0141937303282E-09
(PID.TID 0000.0001) %MON ad_dynstat_adsalt_sd         =   6.4501382619025E-06
(PID.TID 0000.0001) %MON ad_dynstat_adsalt_del2       =   6.3093150120087E-07
(PID.TID 0000.0001) %MON ad_dynstat_adsst_max         =   6.3247876956703E-06
(PID.TID 0000.0001) %MON ad_dynstat_adsst_min         =  -7.0781155812103E-06
(PID.TID 0000.0001) %MON ad_dynstat_adsst_mean        =  -1.5474968692756E-08
(PID.TID 0000.0001) %MON ad_dynstat_adsst_sd          =   6.2750346110419E-07
(PID.TID 0000.0001) %MON ad_dynstat_adsst_del2        =   5.7595169670689E-08
(PID.TID 0000.0001) %MON ad_dynstat_adsss_max         =   1.7482975459221E-05
(PID.TID 0000.0001) %MON ad_dynstat_adsss_min         =  -1.9987211835746E-05
(PID.TID 0000.0001) %MON ad_dynstat_adsss_mean        =   6.4209640877472E-09
(PID.TID 0000.0001) %MON ad_dynstat_adsss_sd          =   1.7676230761212E-06
(PID.TID 0000.0001) %MON ad_dynstat_adsss_del2        =   1.6447506753930E-07
(PID.TID 0000.0001) %MON ad_extforcing_adqnet_max     =   0.0000000000000E+00
(PID.TID 0000.0001) %MON ad_extforcing_adqnet_min     =   0.0000000000000E+00
(PID.TID 0000.0001) %MON ad_extforcing_adqnet_mean    =   0.0000000000000E+00
(PID.TID 0000.0001) %MON ad_extforcing_adqnet_sd      =   0.0000000000000E+00
(PID.TID 0000.0001) %MON ad_extforcing_adqnet_del2    =   0.0000000000000E+00
(PID.TID 0000.0001) %MON ad_extforcing_adempmr_max    =   3.8532577050719E-01
(PID.TID 0000.0001) %MON ad_extforcing_adempmr_min    =  -3.6330661933317E-01
(PID.TID 0000.0001) %MON ad_extforcing_adempmr_mean   =  -1.4818626166197E-04
(PID.TID 0000.0001) %MON ad_extforcing_adempmr_sd     =   3.6171361704188E-02
(PID.TID 0000.0001) %MON ad_extforcing_adempmr_del2   =   3.4322903690222E-03
(PID.TID 0000.0001) %MON ad_extforcing_adfu_max       =   0.0000000000000E+00
(PID.TID 0000.0001) %MON ad_extforcing_adfu_min       =   0.0000000000000E+00
(PID.TID 0000.0001) %MON ad_extforcing_adfu_mean      =   0.0000000000000E+00
(PID.TID 0000.0001) %MON ad_extforcing_adfu_sd        =   0.0000000000000E+00
(PID.TID 0000.0001) %MON ad_extforcing_adfu_del2      =   0.0000000000000E+00
(PID.TID 0000.0001) %MON ad_extforcing_adfv_max       =   0.0000000000000E+00
(PID.TID 0000.0001) %MON ad_extforcing_adfv_min       =   0.0000000000000E+00
(PID.TID 0000.0001) %MON ad_extforcing_adfv_mean      =   0.0000000000000E+00
(PID.TID 0000.0001) %MON ad_extforcing_adfv_sd        =   0.0000000000000E+00
(PID.TID 0000.0001) %MON ad_extforcing_adfv_del2      =   0.0000000000000E+00
(PID.TID 0000.0001) %MON ad_advcfl_aduvel_max         =   2.8519218905499E-05
(PID.TID 0000.0001) %MON ad_advcfl_advvel_max         =   9.0540756709977E-04
(PID.TID 0000.0001) %MON ad_advcfl_adwvel_max         =   1.4830863400154E+00
(PID.TID 0000.0001) %MON ad_advcfl_adW_hf_max         =   9.2803017969733E-01
(PID.TID 0000.0001) // =======================================================
(PID.TID 0000.0001) // End MONITOR dynamic field statistics
(PID.TID 0000.0001) // =======================================================
 cg2d: Sum(rhs),rhsMax =   1.96828719439377E-14  7.28703025305887E-09
(PID.TID 0000.0001) // =======================================================
(PID.TID 0000.0001) // Begin MONITOR dynamic field statistics
(PID.TID 0000.0001) // =======================================================
(PID.TID 0000.0001) %MON ad_time_tsnumber             =                   118
(PID.TID 0000.0001) %MON ad_time_secondsf             =   5.0976000000000E+06
(PID.TID 0000.0001) %MON ad_dynstat_adeta_max         =   6.3743439648983E-04
(PID.TID 0000.0001) %MON ad_dynstat_adeta_min         =  -8.7645831366671E-04
(PID.TID 0000.0001) %MON ad_dynstat_adeta_mean        =   3.6122128379422E-07
(PID.TID 0000.0001) %MON ad_dynstat_adeta_sd          =   6.6946037753880E-05
(PID.TID 0000.0001) %MON ad_dynstat_adeta_del2        =   5.6562269481132E-06
(PID.TID 0000.0001) %MON ad_dynstat_aduvel_max        =   6.7061033112372E-04
(PID.TID 0000.0001) %MON ad_dynstat_aduvel_min        =  -2.2640387448747E-04
(PID.TID 0000.0001) %MON ad_dynstat_aduvel_mean       =   4.1193660922806E-07
(PID.TID 0000.0001) %MON ad_dynstat_aduvel_sd         =   1.6448515122033E-05
(PID.TID 0000.0001) %MON ad_dynstat_aduvel_del2       =   8.7498221128385E-07
(PID.TID 0000.0001) %MON ad_dynstat_advvel_max        =   1.3527432839552E-02
(PID.TID 0000.0001) %MON ad_dynstat_advvel_min        =  -2.4941427462672E-03
(PID.TID 0000.0001) %MON ad_dynstat_advvel_mean       =   1.2107124940464E-05
(PID.TID 0000.0001) %MON ad_dynstat_advvel_sd         =   4.3235352152405E-04
(PID.TID 0000.0001) %MON ad_dynstat_advvel_del2       =   3.8004744281588E-05
(PID.TID 0000.0001) %MON ad_dynstat_adwvel_max        =   1.2243402074116E-02
(PID.TID 0000.0001) %MON ad_dynstat_adwvel_min        =  -8.3728865157264E-03
(PID.TID 0000.0001) %MON ad_dynstat_adwvel_mean       =   5.8667401204988E-06
(PID.TID 0000.0001) %MON ad_dynstat_adwvel_sd         =   3.9312950062300E-04
(PID.TID 0000.0001) %MON ad_dynstat_adwvel_del2       =   3.6883427945326E-05
(PID.TID 0000.0001) %MON ad_dynstat_adtheta_max       =   5.0596865799965E-05
(PID.TID 0000.0001) %MON ad_dynstat_adtheta_min       =  -5.1631224970265E-05
(PID.TID 0000.0001) %MON ad_dynstat_adtheta_mean      =  -5.3683395846678E-09
(PID.TID 0000.0001) %MON ad_dynstat_adtheta_sd        =   4.9209847076702E-06
(PID.TID 0000.0001) %MON ad_dynstat_adtheta_del2      =   4.9153958263324E-07
(PID.TID 0000.0001) %MON ad_dynstat_adsalt_max        =   2.4523118543520E-04
(PID.TID 0000.0001) %MON ad_dynstat_adsalt_min        =  -2.4914049416331E-04
(PID.TID 0000.0001) %MON ad_dynstat_adsalt_mean       =  -6.1440544318119E-09
(PID.TID 0000.0001) %MON ad_dynstat_adsalt_sd         =   2.2887404297599E-05
(PID.TID 0000.0001) %MON ad_dynstat_adsalt_del2       =   2.1581169791188E-06
(PID.TID 0000.0001) %MON ad_dynstat_adsst_max         =   1.2485308725993E-05
(PID.TID 0000.0001) %MON ad_dynstat_adsst_min         =  -1.2361088135542E-05
(PID.TID 0000.0001) %MON ad_dynstat_adsst_mean        =  -3.4092972279566E-08
(PID.TID 0000.0001) %MON ad_dynstat_adsst_sd          =   1.0529420967051E-06
(PID.TID 0000.0001) %MON ad_dynstat_adsst_del2        =   7.9886227610448E-08
(PID.TID 0000.0001) %MON ad_dynstat_adsss_max         =   3.0928614150052E-05
(PID.TID 0000.0001) %MON ad_dynstat_adsss_min         =  -3.8871802027183E-05
(PID.TID 0000.0001) %MON ad_dynstat_adsss_mean        =   3.0303395757813E-08
(PID.TID 0000.0001) %MON ad_dynstat_adsss_sd          =   2.9696873905441E-06
(PID.TID 0000.0001) %MON ad_dynstat_adsss_del2        =   2.2818415257827E-07
(PID.TID 0000.0001) %MON ad_extforcing_adqnet_max     =   0.0000000000000E+00
(PID.TID 0000.0001) %MON ad_extforcing_adqnet_min     =   0.0000000000000E+00
(PID.TID 0000.0001) %MON ad_extforcing_adqnet_mean    =   0.0000000000000E+00
(PID.TID 0000.0001) %MON ad_extforcing_adqnet_sd      =   0.0000000000000E+00
(PID.TID 0000.0001) %MON ad_extforcing_adqnet_del2    =   0.0000000000000E+00
(PID.TID 0000.0001) %MON ad_extforcing_adempmr_max    =   4.8916903622745E-01
(PID.TID 0000.0001) %MON ad_extforcing_adempmr_min    =  -4.4186740623504E-01
(PID.TID 0000.0001) %MON ad_extforcing_adempmr_mean   =   4.1881445338529E-04
(PID.TID 0000.0001) %MON ad_extforcing_adempmr_sd     =   3.7355859003164E-02
(PID.TID 0000.0001) %MON ad_extforcing_adempmr_del2   =   2.9532917227830E-03
(PID.TID 0000.0001) %MON ad_extforcing_adfu_max       =   0.0000000000000E+00
(PID.TID 0000.0001) %MON ad_extforcing_adfu_min       =   0.0000000000000E+00
(PID.TID 0000.0001) %MON ad_extforcing_adfu_mean      =   0.0000000000000E+00
(PID.TID 0000.0001) %MON ad_extforcing_adfu_sd        =   0.0000000000000E+00
(PID.TID 0000.0001) %MON ad_extforcing_adfu_del2      =   0.0000000000000E+00
(PID.TID 0000.0001) %MON ad_extforcing_adfv_max       =   0.0000000000000E+00
(PID.TID 0000.0001) %MON ad_extforcing_adfv_min       =   0.0000000000000E+00
(PID.TID 0000.0001) %MON ad_extforcing_adfv_mean      =   0.0000000000000E+00
(PID.TID 0000.0001) %MON ad_extforcing_adfv_sd        =   0.0000000000000E+00
(PID.TID 0000.0001) %MON ad_extforcing_adfv_del2      =   0.0000000000000E+00
(PID.TID 0000.0001) %MON ad_advcfl_aduvel_max         =   7.5222292251096E-05
(PID.TID 0000.0001) %MON ad_advcfl_advvel_max         =   1.3140816233929E-03
(PID.TID 0000.0001) %MON ad_advcfl_adwvel_max         =   6.2225290541390E+00
(PID.TID 0000.0001) %MON ad_advcfl_adW_hf_max         =   8.8152494933636E+00
(PID.TID 0000.0001) // =======================================================
(PID.TID 0000.0001) // End MONITOR dynamic field statistics
(PID.TID 0000.0001) // =======================================================
 cg2d: Sum(rhs),rhsMax =   1.03604073544200E-13  1.17201612385360E-08
time,SST,SSS,fu,fv,Q,E-P,i0,i1,a,b =   4.9248E+06 -3.9268E-01  3.4484E+01 -1.9540E-02 -1.0813E-02  2.3045E+02  0.0000E+00     2     3  4.0000E-01  6.0000E-01
time,fu0,fu1,fu =   4.9248E+06 -1.4435E-02 -2.7199E-02 -1.9540E-02  4.000000000000000E-01  6.000000000000000E-01
 cg2d: Sum(rhs),rhsMax =   2.74236189312660E-12  8.72810172445269E+00
time,SST,SSS,fu,fv,Q,E-P,i0,i1,a,b =   4.9680E+06 -3.8688E-01  3.4487E+01 -1.9753E-02 -1.0528E-02  2.3003E+02  0.0000E+00     2     3  4.1667E-01  5.8333E-01
time,fu0,fu1,fu =   4.9680E+06 -1.4435E-02 -2.7199E-02 -1.9753E-02  4.166666666666667E-01  5.833333333333333E-01
 cg2d: Sum(rhs),rhsMax =   1.63478952597274E-12  8.66161341629478E+00
time,SST,SSS,fu,fv,Q,E-P,i0,i1,a,b =   5.0112E+06 -3.8108E-01  3.4490E+01 -1.9966E-02 -1.0244E-02  2.2961E+02  0.0000E+00     2     3  4.3333E-01  5.6667E-01
time,fu0,fu1,fu =   5.0112E+06 -1.4435E-02 -2.7199E-02 -1.9966E-02  4.333333333333333E-01  5.666666666666667E-01
 cg2d: Sum(rhs),rhsMax =   2.27674823438662E-12  8.59122132821649E+00
(PID.TID 0000.0001) // =======================================================
(PID.TID 0000.0001) // Begin MONITOR dynamic field statistics
(PID.TID 0000.0001) // =======================================================
(PID.TID 0000.0001) %MON ad_time_tsnumber             =                   117
(PID.TID 0000.0001) %MON ad_time_secondsf             =   5.0544000000000E+06
(PID.TID 0000.0001) %MON ad_dynstat_adeta_max         =   9.1649123404520E-04
(PID.TID 0000.0001) %MON ad_dynstat_adeta_min         =  -1.4116967775324E-03
(PID.TID 0000.0001) %MON ad_dynstat_adeta_mean        =   6.9950567633484E-07
(PID.TID 0000.0001) %MON ad_dynstat_adeta_sd          =   9.8437101446270E-05
(PID.TID 0000.0001) %MON ad_dynstat_adeta_del2        =   7.3088112494578E-06
(PID.TID 0000.0001) %MON ad_dynstat_aduvel_max        =   1.2356505328347E-03
(PID.TID 0000.0001) %MON ad_dynstat_aduvel_min        =  -5.2378376469289E-04
(PID.TID 0000.0001) %MON ad_dynstat_aduvel_mean       =   9.2775516881687E-07
(PID.TID 0000.0001) %MON ad_dynstat_aduvel_sd         =   3.3636118731775E-05
(PID.TID 0000.0001) %MON ad_dynstat_aduvel_del2       =   1.8711334790325E-06
(PID.TID 0000.0001) %MON ad_dynstat_advvel_max        =   1.7476298849419E-02
(PID.TID 0000.0001) %MON ad_dynstat_advvel_min        =  -4.7742642910075E-03
(PID.TID 0000.0001) %MON ad_dynstat_advvel_mean       =   1.3637044452348E-05
(PID.TID 0000.0001) %MON ad_dynstat_advvel_sd         =   6.0807380952903E-04
(PID.TID 0000.0001) %MON ad_dynstat_advvel_del2       =   5.4300529496444E-05
(PID.TID 0000.0001) %MON ad_dynstat_adwvel_max        =   3.2203085418714E-02
(PID.TID 0000.0001) %MON ad_dynstat_adwvel_min        =  -2.9724696207280E-02
(PID.TID 0000.0001) %MON ad_dynstat_adwvel_mean       =   1.0440113180785E-05
(PID.TID 0000.0001) %MON ad_dynstat_adwvel_sd         =   1.2263961468668E-03
(PID.TID 0000.0001) %MON ad_dynstat_adwvel_del2       =   1.1299070457701E-04
(PID.TID 0000.0001) %MON ad_dynstat_adtheta_max       =   1.0833717776698E-04
(PID.TID 0000.0001) %MON ad_dynstat_adtheta_min       =  -1.1115434219993E-04
(PID.TID 0000.0001) %MON ad_dynstat_adtheta_mean      =  -5.8776468502699E-09
(PID.TID 0000.0001) %MON ad_dynstat_adtheta_sd        =   1.0642813475969E-05
(PID.TID 0000.0001) %MON ad_dynstat_adtheta_del2      =   1.0383217427731E-06
(PID.TID 0000.0001) %MON ad_dynstat_adsalt_max        =   5.4937069478525E-04
(PID.TID 0000.0001) %MON ad_dynstat_adsalt_min        =  -5.3308743584732E-04
(PID.TID 0000.0001) %MON ad_dynstat_adsalt_mean       =  -1.8183390460744E-08
(PID.TID 0000.0001) %MON ad_dynstat_adsalt_sd         =   4.9447099765174E-05
(PID.TID 0000.0001) %MON ad_dynstat_adsalt_del2       =   4.5587528312740E-06
(PID.TID 0000.0001) %MON ad_dynstat_adsst_max         =   1.6493933765149E-05
(PID.TID 0000.0001) %MON ad_dynstat_adsst_min         =  -1.4556672850638E-05
(PID.TID 0000.0001) %MON ad_dynstat_adsst_mean        =  -5.4994087485949E-08
(PID.TID 0000.0001) %MON ad_dynstat_adsst_sd          =   1.2702777149955E-06
(PID.TID 0000.0001) %MON ad_dynstat_adsst_del2        =   8.2839137721390E-08
(PID.TID 0000.0001) %MON ad_dynstat_adsss_max         =   3.6074205613131E-05
(PID.TID 0000.0001) %MON ad_dynstat_adsss_min         =  -5.1519670594464E-05
(PID.TID 0000.0001) %MON ad_dynstat_adsss_mean        =   5.8366058879378E-08
(PID.TID 0000.0001) %MON ad_dynstat_adsss_sd          =   3.5789510460281E-06
(PID.TID 0000.0001) %MON ad_dynstat_adsss_del2        =   2.3467537071433E-07
(PID.TID 0000.0001) %MON ad_extforcing_adqnet_max     =   0.0000000000000E+00
(PID.TID 0000.0001) %MON ad_extforcing_adqnet_min     =   0.0000000000000E+00
(PID.TID 0000.0001) %MON ad_extforcing_adqnet_mean    =   0.0000000000000E+00
(PID.TID 0000.0001) %MON ad_extforcing_adqnet_sd      =   0.0000000000000E+00
(PID.TID 0000.0001) %MON ad_extforcing_adqnet_del2    =   0.0000000000000E+00
(PID.TID 0000.0001) %MON ad_extforcing_adempmr_max    =   9.2214206053435E-01
(PID.TID 0000.0001) %MON ad_extforcing_adempmr_min    =  -5.4126644714771E-01
(PID.TID 0000.0001) %MON ad_extforcing_adempmr_mean   =   1.8777315935581E-03
(PID.TID 0000.0001) %MON ad_extforcing_adempmr_sd     =   5.4925210679751E-02
(PID.TID 0000.0001) %MON ad_extforcing_adempmr_del2   =   4.8044902522530E-03
(PID.TID 0000.0001) %MON ad_extforcing_adfu_max       =   0.0000000000000E+00
(PID.TID 0000.0001) %MON ad_extforcing_adfu_min       =   0.0000000000000E+00
(PID.TID 0000.0001) %MON ad_extforcing_adfu_mean      =   0.0000000000000E+00
(PID.TID 0000.0001) %MON ad_extforcing_adfu_sd        =   0.0000000000000E+00
(PID.TID 0000.0001) %MON ad_extforcing_adfu_del2      =   0.0000000000000E+00
(PID.TID 0000.0001) %MON ad_extforcing_adfv_max       =   0.0000000000000E+00
(PID.TID 0000.0001) %MON ad_extforcing_adfv_min       =   0.0000000000000E+00
(PID.TID 0000.0001) %MON ad_extforcing_adfv_mean      =   0.0000000000000E+00
(PID.TID 0000.0001) %MON ad_extforcing_adfv_sd        =   0.0000000000000E+00
(PID.TID 0000.0001) %MON ad_extforcing_adfv_del2      =   0.0000000000000E+00
(PID.TID 0000.0001) %MON ad_advcfl_aduvel_max         =   1.3860279388384E-04
(PID.TID 0000.0001) %MON ad_advcfl_advvel_max         =   1.6976822901531E-03
(PID.TID 0000.0001) %MON ad_advcfl_adwvel_max         =   8.3712225902853E+00
(PID.TID 0000.0001) %MON ad_advcfl_adW_hf_max         =   1.1859232002904E+01
(PID.TID 0000.0001) // =======================================================
(PID.TID 0000.0001) // End MONITOR dynamic field statistics
(PID.TID 0000.0001) // =======================================================
 cg2d: Sum(rhs),rhsMax =   8.45246568244291E-14  1.50536707661411E-08
(PID.TID 0000.0001) // =======================================================
(PID.TID 0000.0001) // Begin MONITOR dynamic field statistics
(PID.TID 0000.0001) // =======================================================
(PID.TID 0000.0001) %MON ad_time_tsnumber             =                   116
(PID.TID 0000.0001) %MON ad_time_secondsf             =   5.0112000000000E+06
(PID.TID 0000.0001) %MON ad_dynstat_adeta_max         =   1.1206229547281E-03
(PID.TID 0000.0001) %MON ad_dynstat_adeta_min         =  -1.8388786267436E-03
(PID.TID 0000.0001) %MON ad_dynstat_adeta_mean        =   1.1241753864027E-06
(PID.TID 0000.0001) %MON ad_dynstat_adeta_sd          =   1.2293879564786E-04
(PID.TID 0000.0001) %MON ad_dynstat_adeta_del2        =   8.0561323112772E-06
(PID.TID 0000.0001) %MON ad_dynstat_aduvel_max        =   2.2618972507487E-03
(PID.TID 0000.0001) %MON ad_dynstat_aduvel_min        =  -9.0076541202434E-04
(PID.TID 0000.0001) %MON ad_dynstat_aduvel_mean       =   1.7060357923066E-06
(PID.TID 0000.0001) %MON ad_dynstat_aduvel_sd         =   5.4856799343470E-05
(PID.TID 0000.0001) %MON ad_dynstat_aduvel_del2       =   3.0492007428961E-06
(PID.TID 0000.0001) %MON ad_dynstat_advvel_max        =   2.1215058232015E-02
(PID.TID 0000.0001) %MON ad_dynstat_advvel_min        =  -7.2230810474063E-03
(PID.TID 0000.0001) %MON ad_dynstat_advvel_mean       =   1.3563371229132E-05
(PID.TID 0000.0001) %MON ad_dynstat_advvel_sd         =   7.8798440189738E-04
(PID.TID 0000.0001) %MON ad_dynstat_advvel_del2       =   6.9417033846122E-05
(PID.TID 0000.0001) %MON ad_dynstat_adwvel_max        =   6.3893171105977E-02
(PID.TID 0000.0001) %MON ad_dynstat_adwvel_min        =  -6.0751373543393E-02
(PID.TID 0000.0001) %MON ad_dynstat_adwvel_mean       =   1.5763275735603E-05
(PID.TID 0000.0001) %MON ad_dynstat_adwvel_sd         =   2.4757438008330E-03
(PID.TID 0000.0001) %MON ad_dynstat_adwvel_del2       =   2.2570817917134E-04
(PID.TID 0000.0001) %MON ad_dynstat_adtheta_max       =   1.8326707543126E-04
(PID.TID 0000.0001) %MON ad_dynstat_adtheta_min       =  -1.8927580131943E-04
(PID.TID 0000.0001) %MON ad_dynstat_adtheta_mean      =  -4.8750072486551E-09
(PID.TID 0000.0001) %MON ad_dynstat_adtheta_sd        =   1.8176962769098E-05
(PID.TID 0000.0001) %MON ad_dynstat_adtheta_del2      =   1.7397244398274E-06
(PID.TID 0000.0001) %MON ad_dynstat_adsalt_max        =   9.7180476833465E-04
(PID.TID 0000.0001) %MON ad_dynstat_adsalt_min        =  -9.0343380165498E-04
(PID.TID 0000.0001) %MON ad_dynstat_adsalt_mean       =  -3.9828000855870E-08
(PID.TID 0000.0001) %MON ad_dynstat_adsalt_sd         =   8.4377489252790E-05
(PID.TID 0000.0001) %MON ad_dynstat_adsalt_del2       =   7.6291228801306E-06
(PID.TID 0000.0001) %MON ad_dynstat_adsst_max         =   1.7388445126193E-05
(PID.TID 0000.0001) %MON ad_dynstat_adsst_min         =  -1.3217873859195E-05
(PID.TID 0000.0001) %MON ad_dynstat_adsst_mean        =  -8.4043544053537E-08
(PID.TID 0000.0001) %MON ad_dynstat_adsst_sd          =   1.4139087785851E-06
(PID.TID 0000.0001) %MON ad_dynstat_adsst_del2        =   7.9973493938932E-08
(PID.TID 0000.0001) %MON ad_dynstat_adsss_max         =   3.1744067100428E-05
(PID.TID 0000.0001) %MON ad_dynstat_adsss_min         =  -5.5140762358111E-05
(PID.TID 0000.0001) %MON ad_dynstat_adsss_mean        =   1.0754258109233E-07
(PID.TID 0000.0001) %MON ad_dynstat_adsss_sd          =   3.9732273012268E-06
(PID.TID 0000.0001) %MON ad_dynstat_adsss_del2        =   2.3235184040994E-07
(PID.TID 0000.0001) %MON ad_extforcing_adqnet_max     =   0.0000000000000E+00
(PID.TID 0000.0001) %MON ad_extforcing_adqnet_min     =   0.0000000000000E+00
(PID.TID 0000.0001) %MON ad_extforcing_adqnet_mean    =   0.0000000000000E+00
(PID.TID 0000.0001) %MON ad_extforcing_adqnet_sd      =   0.0000000000000E+00
(PID.TID 0000.0001) %MON ad_extforcing_adqnet_del2    =   0.0000000000000E+00
(PID.TID 0000.0001) %MON ad_extforcing_adempmr_max    =   1.9494637171175E+00
(PID.TID 0000.0001) %MON ad_extforcing_adempmr_min    =  -1.0519369923254E+00
(PID.TID 0000.0001) %MON ad_extforcing_adempmr_mean   =   4.0683148862534E-03
(PID.TID 0000.0001) %MON ad_extforcing_adempmr_sd     =   1.0963758644059E-01
(PID.TID 0000.0001) %MON ad_extforcing_adempmr_del2   =   1.1329128360562E-02
(PID.TID 0000.0001) %MON ad_extforcing_adfu_max       =   0.0000000000000E+00
(PID.TID 0000.0001) %MON ad_extforcing_adfu_min       =   0.0000000000000E+00
(PID.TID 0000.0001) %MON ad_extforcing_adfu_mean      =   0.0000000000000E+00
(PID.TID 0000.0001) %MON ad_extforcing_adfu_sd        =   0.0000000000000E+00
(PID.TID 0000.0001) %MON ad_extforcing_adfu_del2      =   0.0000000000000E+00
(PID.TID 0000.0001) %MON ad_extforcing_adfv_max       =   0.0000000000000E+00
(PID.TID 0000.0001) %MON ad_extforcing_adfv_min       =   0.0000000000000E+00
(PID.TID 0000.0001) %MON ad_extforcing_adfv_mean      =   0.0000000000000E+00
(PID.TID 0000.0001) %MON ad_extforcing_adfv_sd        =   0.0000000000000E+00
(PID.TID 0000.0001) %MON ad_extforcing_adfv_del2      =   0.0000000000000E+00
(PID.TID 0000.0001) %MON ad_advcfl_aduvel_max         =   2.5371678326617E-04
(PID.TID 0000.0001) %MON ad_advcfl_advvel_max         =   2.0608727829266E-03
(PID.TID 0000.0001) %MON ad_advcfl_adwvel_max         =   1.2838069729201E+01
(PID.TID 0000.0001) %MON ad_advcfl_adW_hf_max         =   1.7977549009310E+01
(PID.TID 0000.0001) // =======================================================
(PID.TID 0000.0001) // End MONITOR dynamic field statistics
(PID.TID 0000.0001) // =======================================================
 cg2d: Sum(rhs),rhsMax =   1.61398413233373E-14  1.69161824339204E-08
(PID.TID 0000.0001) // =======================================================
(PID.TID 0000.0001) // Begin MONITOR dynamic field statistics
(PID.TID 0000.0001) // =======================================================
(PID.TID 0000.0001) %MON ad_time_tsnumber             =                   115
(PID.TID 0000.0001) %MON ad_time_secondsf             =   4.9680000000000E+06
(PID.TID 0000.0001) %MON ad_dynstat_adeta_max         =   1.2643865963856E-03
(PID.TID 0000.0001) %MON ad_dynstat_adeta_min         =  -2.1216583375318E-03
(PID.TID 0000.0001) %MON ad_dynstat_adeta_mean        =   1.6209409152973E-06
(PID.TID 0000.0001) %MON ad_dynstat_adeta_sd          =   1.4249099639408E-04
(PID.TID 0000.0001) %MON ad_dynstat_adeta_del2        =   8.6661433407402E-06
(PID.TID 0000.0001) %MON ad_dynstat_aduvel_max        =   3.4033094484635E-03
(PID.TID 0000.0001) %MON ad_dynstat_aduvel_min        =  -1.2588382696592E-03
(PID.TID 0000.0001) %MON ad_dynstat_aduvel_mean       =   2.7936094017160E-06
(PID.TID 0000.0001) %MON ad_dynstat_aduvel_sd         =   7.7291407763618E-05
(PID.TID 0000.0001) %MON ad_dynstat_aduvel_del2       =   4.2322907874189E-06
(PID.TID 0000.0001) %MON ad_dynstat_advvel_max        =   2.4742209754579E-02
(PID.TID 0000.0001) %MON ad_dynstat_advvel_min        =  -9.9769637519749E-03
(PID.TID 0000.0001) %MON ad_dynstat_advvel_mean       =   1.2038821075595E-05
(PID.TID 0000.0001) %MON ad_dynstat_advvel_sd         =   9.5962742629249E-04
(PID.TID 0000.0001) %MON ad_dynstat_advvel_del2       =   8.3069124505788E-05
(PID.TID 0000.0001) %MON ad_dynstat_adwvel_max        =   1.0236623320195E-01
(PID.TID 0000.0001) %MON ad_dynstat_adwvel_min        =  -9.8223318086486E-02
(PID.TID 0000.0001) %MON ad_dynstat_adwvel_mean       =   2.1503821750292E-05
(PID.TID 0000.0001) %MON ad_dynstat_adwvel_sd         =   4.0228265539501E-03
(PID.TID 0000.0001) %MON ad_dynstat_adwvel_del2       =   3.6071601842735E-04
(PID.TID 0000.0001) %MON ad_dynstat_adtheta_max       =   2.7174814333162E-04
(PID.TID 0000.0001) %MON ad_dynstat_adtheta_min       =  -2.9173420404886E-04
(PID.TID 0000.0001) %MON ad_dynstat_adtheta_mean      =  -1.8318943459333E-09
(PID.TID 0000.0001) %MON ad_dynstat_adtheta_sd        =   2.7150576824600E-05
(PID.TID 0000.0001) %MON ad_dynstat_adtheta_del2      =   2.5616463688882E-06
(PID.TID 0000.0001) %MON ad_dynstat_adsalt_max        =   1.4978494026595E-03
(PID.TID 0000.0001) %MON ad_dynstat_adsalt_min        =  -1.3531270094296E-03
(PID.TID 0000.0001) %MON ad_dynstat_adsalt_mean       =  -7.3469560765128E-08
(PID.TID 0000.0001) %MON ad_dynstat_adsalt_sd         =   1.2595587037824E-04
(PID.TID 0000.0001) %MON ad_dynstat_adsalt_del2       =   1.1223778504267E-05
(PID.TID 0000.0001) %MON ad_dynstat_adsst_max         =   1.5416752090646E-05
(PID.TID 0000.0001) %MON ad_dynstat_adsst_min         =  -1.1345462386333E-05
(PID.TID 0000.0001) %MON ad_dynstat_adsst_mean        =  -1.1774279324958E-07
(PID.TID 0000.0001) %MON ad_dynstat_adsst_sd          =   1.5447811002213E-06
(PID.TID 0000.0001) %MON ad_dynstat_adsst_del2        =   9.3794933010030E-08
(PID.TID 0000.0001) %MON ad_dynstat_adsss_max         =   3.3278130959861E-05
(PID.TID 0000.0001) %MON ad_dynstat_adsss_min         =  -5.0438692049505E-05
(PID.TID 0000.0001) %MON ad_dynstat_adsss_mean        =   1.6762993677845E-07
(PID.TID 0000.0001) %MON ad_dynstat_adsss_sd          =   4.3359792684028E-06
(PID.TID 0000.0001) %MON ad_dynstat_adsss_del2        =   2.6748790327416E-07
(PID.TID 0000.0001) %MON ad_extforcing_adqnet_max     =   0.0000000000000E+00
(PID.TID 0000.0001) %MON ad_extforcing_adqnet_min     =   0.0000000000000E+00
(PID.TID 0000.0001) %MON ad_extforcing_adqnet_mean    =   0.0000000000000E+00
(PID.TID 0000.0001) %MON ad_extforcing_adqnet_sd      =   0.0000000000000E+00
(PID.TID 0000.0001) %MON ad_extforcing_adqnet_del2    =   0.0000000000000E+00
(PID.TID 0000.0001) %MON ad_extforcing_adempmr_max    =   3.6021742799837E+00
(PID.TID 0000.0001) %MON ad_extforcing_adempmr_min    =  -1.9509818710957E+00
(PID.TID 0000.0001) %MON ad_extforcing_adempmr_mean   =   7.7322289059852E-03
(PID.TID 0000.0001) %MON ad_extforcing_adempmr_sd     =   2.1391061726742E-01
(PID.TID 0000.0001) %MON ad_extforcing_adempmr_del2   =   2.2832823465645E-02
(PID.TID 0000.0001) %MON ad_extforcing_adfu_max       =   0.0000000000000E+00
(PID.TID 0000.0001) %MON ad_extforcing_adfu_min       =   0.0000000000000E+00
(PID.TID 0000.0001) %MON ad_extforcing_adfu_mean      =   0.0000000000000E+00
(PID.TID 0000.0001) %MON ad_extforcing_adfu_sd        =   0.0000000000000E+00
(PID.TID 0000.0001) %MON ad_extforcing_adfu_del2      =   0.0000000000000E+00
(PID.TID 0000.0001) %MON ad_extforcing_adfv_max       =   0.0000000000000E+00
(PID.TID 0000.0001) %MON ad_extforcing_adfv_min       =   0.0000000000000E+00
(PID.TID 0000.0001) %MON ad_extforcing_adfv_mean      =   0.0000000000000E+00
(PID.TID 0000.0001) %MON ad_extforcing_adfv_sd        =   0.0000000000000E+00
(PID.TID 0000.0001) %MON ad_extforcing_adfv_del2      =   0.0000000000000E+00
(PID.TID 0000.0001) %MON ad_advcfl_aduvel_max         =   3.8174887273845E-04
(PID.TID 0000.0001) %MON ad_advcfl_advvel_max         =   2.4035072689890E-03
(PID.TID 0000.0001) %MON ad_advcfl_adwvel_max         =   2.0568471043368E+01
(PID.TID 0000.0001) %MON ad_advcfl_adW_hf_max         =   2.6801341056509E+01
(PID.TID 0000.0001) // =======================================================
(PID.TID 0000.0001) // End MONITOR dynamic field statistics
(PID.TID 0000.0001) // =======================================================
 cg2d: Sum(rhs),rhsMax =  -1.79200086538857E-13  1.75927587667721E-08
time,SST,SSS,fu,fv,Q,E-P,i0,i1,a,b =   4.7952E+06 -4.1007E-01  3.4476E+01 -1.8902E-02 -1.1665E-02  2.3170E+02  0.0000E+00     2     3  3.5000E-01  6.5000E-01
time,fu0,fu1,fu =   4.7952E+06 -1.4435E-02 -2.7199E-02 -1.8902E-02  3.500000000000000E-01  6.500000000000000E-01
 cg2d: Sum(rhs),rhsMax =   2.35469976850311E-12  8.87885337906463E+00
time,SST,SSS,fu,fv,Q,E-P,i0,i1,a,b =   4.8384E+06 -4.0427E-01  3.4479E+01 -1.9115E-02 -1.1381E-02  2.3128E+02  0.0000E+00     2     3  3.6667E-01  6.3333E-01
time,fu0,fu1,fu =   4.8384E+06 -1.4435E-02 -2.7199E-02 -1.9115E-02  3.666666666666666E-01  6.333333333333333E-01
 cg2d: Sum(rhs),rhsMax =   2.41678899115527E-12  8.83905900826770E+00
time,SST,SSS,fu,fv,Q,E-P,i0,i1,a,b =   4.8816E+06 -3.9848E-01  3.4482E+01 -1.9328E-02 -1.1097E-02  2.3087E+02  0.0000E+00     2     3  3.8333E-01  6.1667E-01
time,fu0,fu1,fu =   4.8816E+06 -1.4435E-02 -2.7199E-02 -1.9328E-02  3.833333333333334E-01  6.166666666666667E-01
 cg2d: Sum(rhs),rhsMax =   2.48769754795930E-12  8.78807252840712E+00
(PID.TID 0000.0001) // =======================================================
(PID.TID 0000.0001) // Begin MONITOR dynamic field statistics
(PID.TID 0000.0001) // =======================================================
(PID.TID 0000.0001) %MON ad_time_tsnumber             =                   114
(PID.TID 0000.0001) %MON ad_time_secondsf             =   4.9248000000000E+06
(PID.TID 0000.0001) %MON ad_dynstat_adeta_max         =   1.3837399131363E-03
(PID.TID 0000.0001) %MON ad_dynstat_adeta_min         =  -2.2896194351133E-03
(PID.TID 0000.0001) %MON ad_dynstat_adeta_mean        =   2.1762952046166E-06
(PID.TID 0000.0001) %MON ad_dynstat_adeta_sd          =   1.5972541340914E-04
(PID.TID 0000.0001) %MON ad_dynstat_adeta_del2        =   9.4496647111810E-06
(PID.TID 0000.0001) %MON ad_dynstat_aduvel_max        =   4.4881105694111E-03
(PID.TID 0000.0001) %MON ad_dynstat_aduvel_min        =  -1.5054103224065E-03
(PID.TID 0000.0001) %MON ad_dynstat_aduvel_mean       =   4.2125337866804E-06
(PID.TID 0000.0001) %MON ad_dynstat_aduvel_sd         =   9.8285720129387E-05
(PID.TID 0000.0001) %MON ad_dynstat_aduvel_del2       =   5.2717818706955E-06
(PID.TID 0000.0001) %MON ad_dynstat_advvel_max        =   2.8025453962670E-02
(PID.TID 0000.0001) %MON ad_dynstat_advvel_min        =  -1.2433406165494E-02
(PID.TID 0000.0001) %MON ad_dynstat_advvel_mean       =   9.3063934369628E-06
(PID.TID 0000.0001) %MON ad_dynstat_advvel_sd         =   1.1180263574077E-03
(PID.TID 0000.0001) %MON ad_dynstat_advvel_del2       =   9.5133402103807E-05
(PID.TID 0000.0001) %MON ad_dynstat_adwvel_max        =   1.4610200568625E-01
(PID.TID 0000.0001) %MON ad_dynstat_adwvel_min        =  -1.4064011550793E-01
(PID.TID 0000.0001) %MON ad_dynstat_adwvel_mean       =   2.7524378746289E-05
(PID.TID 0000.0001) %MON ad_dynstat_adwvel_sd         =   5.7987343172690E-03
(PID.TID 0000.0001) %MON ad_dynstat_adwvel_del2       =   5.1064643965211E-04
(PID.TID 0000.0001) %MON ad_dynstat_adtheta_max       =   3.7222825712978E-04
(PID.TID 0000.0001) %MON ad_dynstat_adtheta_min       =  -4.1189398533312E-04
(PID.TID 0000.0001) %MON ad_dynstat_adtheta_mean      =   3.5771547438226E-09
(PID.TID 0000.0001) %MON ad_dynstat_adtheta_sd        =   3.7314585546378E-05
(PID.TID 0000.0001) %MON ad_dynstat_adtheta_del2      =   3.4780404005480E-06
(PID.TID 0000.0001) %MON ad_dynstat_adsalt_max        =   2.1147709563369E-03
(PID.TID 0000.0001) %MON ad_dynstat_adsalt_min        =  -1.8644931023355E-03
(PID.TID 0000.0001) %MON ad_dynstat_adsalt_mean       =  -1.2056649396505E-07
(PID.TID 0000.0001) %MON ad_dynstat_adsalt_sd         =   1.7303023919428E-04
(PID.TID 0000.0001) %MON ad_dynstat_adsalt_del2       =   1.5233751288168E-05
(PID.TID 0000.0001) %MON ad_dynstat_adsst_max         =   1.1546666402216E-05
(PID.TID 0000.0001) %MON ad_dynstat_adsst_min         =  -1.5136365804203E-05
(PID.TID 0000.0001) %MON ad_dynstat_adsst_mean        =  -1.5885058581204E-07
(PID.TID 0000.0001) %MON ad_dynstat_adsst_sd          =   1.7048619517403E-06
(PID.TID 0000.0001) %MON ad_dynstat_adsst_del2        =   1.1703091215652E-07
(PID.TID 0000.0001) %MON ad_dynstat_adsss_max         =   3.9752437594799E-05
(PID.TID 0000.0001) %MON ad_dynstat_adsss_min         =  -4.0208950849375E-05
(PID.TID 0000.0001) %MON ad_dynstat_adsss_mean        =   2.4908417282126E-07
(PID.TID 0000.0001) %MON ad_dynstat_adsss_sd          =   4.7736578908622E-06
(PID.TID 0000.0001) %MON ad_dynstat_adsss_del2        =   3.3794442965587E-07
(PID.TID 0000.0001) %MON ad_extforcing_adqnet_max     =   0.0000000000000E+00
(PID.TID 0000.0001) %MON ad_extforcing_adqnet_min     =   0.0000000000000E+00
(PID.TID 0000.0001) %MON ad_extforcing_adqnet_mean    =   0.0000000000000E+00
(PID.TID 0000.0001) %MON ad_extforcing_adqnet_sd      =   0.0000000000000E+00
(PID.TID 0000.0001) %MON ad_extforcing_adqnet_del2    =   0.0000000000000E+00
(PID.TID 0000.0001) %MON ad_extforcing_adempmr_max    =   5.9410127777676E+00
(PID.TID 0000.0001) %MON ad_extforcing_adempmr_min    =  -3.2474503029572E+00
(PID.TID 0000.0001) %MON ad_extforcing_adempmr_mean   =   1.3559806965195E-02
(PID.TID 0000.0001) %MON ad_extforcing_adempmr_sd     =   3.7228852661065E-01
(PID.TID 0000.0001) %MON ad_extforcing_adempmr_del2   =   4.0027365825711E-02
(PID.TID 0000.0001) %MON ad_extforcing_adfu_max       =   0.0000000000000E+00
(PID.TID 0000.0001) %MON ad_extforcing_adfu_min       =   0.0000000000000E+00
(PID.TID 0000.0001) %MON ad_extforcing_adfu_mean      =   0.0000000000000E+00
(PID.TID 0000.0001) %MON ad_extforcing_adfu_sd        =   0.0000000000000E+00
(PID.TID 0000.0001) %MON ad_extforcing_adfu_del2      =   0.0000000000000E+00
(PID.TID 0000.0001) %MON ad_extforcing_adfv_max       =   0.0000000000000E+00
(PID.TID 0000.0001) %MON ad_extforcing_adfv_min       =   0.0000000000000E+00
(PID.TID 0000.0001) %MON ad_extforcing_adfv_mean      =   0.0000000000000E+00
(PID.TID 0000.0001) %MON ad_extforcing_adfv_sd        =   0.0000000000000E+00
(PID.TID 0000.0001) %MON ad_extforcing_adfv_del2      =   0.0000000000000E+00
(PID.TID 0000.0001) %MON ad_advcfl_aduvel_max         =   5.0343090352002E-04
(PID.TID 0000.0001) %MON ad_advcfl_advvel_max         =   2.7224481153518E-03
(PID.TID 0000.0001) %MON ad_advcfl_adwvel_max         =   2.9356309979748E+01
(PID.TID 0000.0001) %MON ad_advcfl_adW_hf_max         =   3.8252161488763E+01
(PID.TID 0000.0001) // =======================================================
(PID.TID 0000.0001) // End MONITOR dynamic field statistics
(PID.TID 0000.0001) // =======================================================
 cg2d: Sum(rhs),rhsMax =  -1.78306308836603E-13  1.77015443160613E-08
(PID.TID 0000.0001) // =======================================================
(PID.TID 0000.0001) // Begin MONITOR dynamic field statistics
(PID.TID 0000.0001) // =======================================================
(PID.TID 0000.0001) %MON ad_time_tsnumber             =                   113
(PID.TID 0000.0001) %MON ad_time_secondsf             =   4.8816000000000E+06
(PID.TID 0000.0001) %MON ad_dynstat_adeta_max         =   1.5068082556842E-03
(PID.TID 0000.0001) %MON ad_dynstat_adeta_min         =  -2.4049124622378E-03
(PID.TID 0000.0001) %MON ad_dynstat_adeta_mean        =   2.7777166576902E-06
(PID.TID 0000.0001) %MON ad_dynstat_adeta_sd          =   1.7669957595743E-04
(PID.TID 0000.0001) %MON ad_dynstat_adeta_del2        =   1.0630419525235E-05
(PID.TID 0000.0001) %MON ad_dynstat_aduvel_max        =   5.4155292261716E-03
(PID.TID 0000.0001) %MON ad_dynstat_aduvel_min        =  -1.5988023388968E-03
(PID.TID 0000.0001) %MON ad_dynstat_aduvel_mean       =   5.9425877327345E-06
(PID.TID 0000.0001) %MON ad_dynstat_aduvel_sd         =   1.1629804055673E-04
(PID.TID 0000.0001) %MON ad_dynstat_aduvel_del2       =   6.1153990463400E-06
(PID.TID 0000.0001) %MON ad_dynstat_advvel_max        =   3.1057826596504E-02
(PID.TID 0000.0001) %MON ad_dynstat_advvel_min        =  -1.4448340450303E-02
(PID.TID 0000.0001) %MON ad_dynstat_advvel_mean       =   5.5936181720784E-06
(PID.TID 0000.0001) %MON ad_dynstat_advvel_sd         =   1.2619698164664E-03
(PID.TID 0000.0001) %MON ad_dynstat_advvel_del2       =   1.0586025110108E-04
(PID.TID 0000.0001) %MON ad_dynstat_adwvel_max        =   1.9455100468644E-01
(PID.TID 0000.0001) %MON ad_dynstat_adwvel_min        =  -1.8770331632905E-01
(PID.TID 0000.0001) %MON ad_dynstat_adwvel_mean       =   3.3743899217189E-05
(PID.TID 0000.0001) %MON ad_dynstat_adwvel_sd         =   7.7712940288163E-03
(PID.TID 0000.0001) %MON ad_dynstat_adwvel_del2       =   6.7365030464971E-04
(PID.TID 0000.0001) %MON ad_dynstat_adtheta_max       =   4.8631929240869E-04
(PID.TID 0000.0001) %MON ad_dynstat_adtheta_min       =  -5.4757176171756E-04
(PID.TID 0000.0001) %MON ad_dynstat_adtheta_mean      =   1.1592899639944E-08
(PID.TID 0000.0001) %MON ad_dynstat_adtheta_sd        =   4.8506506222853E-05
(PID.TID 0000.0001) %MON ad_dynstat_adtheta_del2      =   4.4787161830306E-06
(PID.TID 0000.0001) %MON ad_dynstat_adsalt_max        =   2.8113581371555E-03
(PID.TID 0000.0001) %MON ad_dynstat_adsalt_min        =  -2.4281637552134E-03
(PID.TID 0000.0001) %MON ad_dynstat_adsalt_mean       =  -1.8205620087272E-07
(PID.TID 0000.0001) %MON ad_dynstat_adsalt_sd         =   2.2484398256662E-04
(PID.TID 0000.0001) %MON ad_dynstat_adsalt_del2       =   1.9611691804083E-05
(PID.TID 0000.0001) %MON ad_dynstat_adsst_max         =   1.1106241948082E-05
(PID.TID 0000.0001) %MON ad_dynstat_adsst_min         =  -2.1675228870831E-05
(PID.TID 0000.0001) %MON ad_dynstat_adsst_mean        =  -1.9788202957986E-07
(PID.TID 0000.0001) %MON ad_dynstat_adsst_sd          =   1.9525225032009E-06
(PID.TID 0000.0001) %MON ad_dynstat_adsst_del2        =   1.4613374612436E-07
(PID.TID 0000.0001) %MON ad_dynstat_adsss_max         =   5.8992487725565E-05
(PID.TID 0000.0001) %MON ad_dynstat_adsss_min         =  -3.5370809253599E-05
(PID.TID 0000.0001) %MON ad_dynstat_adsss_mean        =   3.2063120471801E-07
(PID.TID 0000.0001) %MON ad_dynstat_adsss_sd          =   5.4966633871481E-06
(PID.TID 0000.0001) %MON ad_dynstat_adsss_del2        =   4.2089700640538E-07
(PID.TID 0000.0001) %MON ad_extforcing_adqnet_max     =   0.0000000000000E+00
(PID.TID 0000.0001) %MON ad_extforcing_adqnet_min     =   0.0000000000000E+00
(PID.TID 0000.0001) %MON ad_extforcing_adqnet_mean    =   0.0000000000000E+00
(PID.TID 0000.0001) %MON ad_extforcing_adqnet_sd      =   0.0000000000000E+00
(PID.TID 0000.0001) %MON ad_extforcing_adqnet_del2    =   0.0000000000000E+00
(PID.TID 0000.0001) %MON ad_extforcing_adempmr_max    =   9.0217796773565E+00
(PID.TID 0000.0001) %MON ad_extforcing_adempmr_min    =  -4.9882111550495E+00
(PID.TID 0000.0001) %MON ad_extforcing_adempmr_mean   =   2.0631549768350E-02
(PID.TID 0000.0001) %MON ad_extforcing_adempmr_sd     =   5.8258724294524E-01
(PID.TID 0000.0001) %MON ad_extforcing_adempmr_del2   =   6.1952399366473E-02
(PID.TID 0000.0001) %MON ad_extforcing_adfu_max       =   0.0000000000000E+00
(PID.TID 0000.0001) %MON ad_extforcing_adfu_min       =   0.0000000000000E+00
(PID.TID 0000.0001) %MON ad_extforcing_adfu_mean      =   0.0000000000000E+00
(PID.TID 0000.0001) %MON ad_extforcing_adfu_sd        =   0.0000000000000E+00
(PID.TID 0000.0001) %MON ad_extforcing_adfu_del2      =   0.0000000000000E+00
(PID.TID 0000.0001) %MON ad_extforcing_adfv_max       =   0.0000000000000E+00
(PID.TID 0000.0001) %MON ad_extforcing_adfv_min       =   0.0000000000000E+00
(PID.TID 0000.0001) %MON ad_extforcing_adfv_mean      =   0.0000000000000E+00
(PID.TID 0000.0001) %MON ad_extforcing_adfv_sd        =   0.0000000000000E+00
(PID.TID 0000.0001) %MON ad_extforcing_adfv_del2      =   0.0000000000000E+00
(PID.TID 0000.0001) %MON ad_advcfl_aduvel_max         =   6.0745935939104E-04
(PID.TID 0000.0001) %MON ad_advcfl_advvel_max         =   3.0170188000238E-03
(PID.TID 0000.0001) %MON ad_advcfl_adwvel_max         =   3.9091178616067E+01
(PID.TID 0000.0001) %MON ad_advcfl_adW_hf_max         =   5.0936990317905E+01
(PID.TID 0000.0001) // =======================================================
(PID.TID 0000.0001) // End MONITOR dynamic field statistics
(PID.TID 0000.0001) // =======================================================
 cg2d: Sum(rhs),rhsMax =  -1.51669306177073E-13  1.78515971479106E-08
(PID.TID 0000.0001) // =======================================================
(PID.TID 0000.0001) // Begin MONITOR dynamic field statistics
(PID.TID 0000.0001) // =======================================================
(PID.TID 0000.0001) %MON ad_time_tsnumber             =                   112
(PID.TID 0000.0001) %MON ad_time_secondsf             =   4.8384000000000E+06
(PID.TID 0000.0001) %MON ad_dynstat_adeta_max         =   1.6462367655372E-03
(PID.TID 0000.0001) %MON ad_dynstat_adeta_min         =  -2.5288646270500E-03
(PID.TID 0000.0001) %MON ad_dynstat_adeta_mean        =   3.4136837072592E-06
(PID.TID 0000.0001) %MON ad_dynstat_adeta_sd          =   1.9452810724863E-04
(PID.TID 0000.0001) %MON ad_dynstat_adeta_del2        =   1.2366515977089E-05
(PID.TID 0000.0001) %MON ad_dynstat_aduvel_max        =   6.1683506407790E-03
(PID.TID 0000.0001) %MON ad_dynstat_aduvel_min        =  -1.6107685399764E-03
(PID.TID 0000.0001) %MON ad_dynstat_aduvel_mean       =   7.9175253214950E-06
(PID.TID 0000.0001) %MON ad_dynstat_aduvel_sd         =   1.3103587075943E-04
(PID.TID 0000.0001) %MON ad_dynstat_aduvel_del2       =   6.7912568467822E-06
(PID.TID 0000.0001) %MON ad_dynstat_advvel_max        =   3.3830810321407E-02
(PID.TID 0000.0001) %MON ad_dynstat_advvel_min        =  -1.6028370115421E-02
(PID.TID 0000.0001) %MON ad_dynstat_advvel_mean       =   1.0766197003841E-06
(PID.TID 0000.0001) %MON ad_dynstat_advvel_sd         =   1.3911151368728E-03
(PID.TID 0000.0001) %MON ad_dynstat_advvel_del2       =   1.1529297505121E-04
(PID.TID 0000.0001) %MON ad_dynstat_adwvel_max        =   2.4736052411240E-01
(PID.TID 0000.0001) %MON ad_dynstat_adwvel_min        =  -2.3939116023546E-01
(PID.TID 0000.0001) %MON ad_dynstat_adwvel_mean       =   3.9917870202959E-05
(PID.TID 0000.0001) %MON ad_dynstat_adwvel_sd         =   9.9211567032107E-03
(PID.TID 0000.0001) %MON ad_dynstat_adwvel_del2       =   8.4888229696916E-04
(PID.TID 0000.0001) %MON ad_dynstat_adtheta_max       =   6.0997694697511E-04
(PID.TID 0000.0001) %MON ad_dynstat_adtheta_min       =  -6.9659292957040E-04
(PID.TID 0000.0001) %MON ad_dynstat_adtheta_mean      =   2.2532382384783E-08
(PID.TID 0000.0001) %MON ad_dynstat_adtheta_sd        =   6.0585235464096E-05
(PID.TID 0000.0001) %MON ad_dynstat_adtheta_del2      =   5.5531056450205E-06
(PID.TID 0000.0001) %MON ad_dynstat_adsalt_max        =   3.5764452228641E-03
(PID.TID 0000.0001) %MON ad_dynstat_adsalt_min        =  -3.0378070995230E-03
(PID.TID 0000.0001) %MON ad_dynstat_adsalt_mean       =  -2.5893966437968E-07
(PID.TID 0000.0001) %MON ad_dynstat_adsalt_sd         =   2.8073747929639E-04
(PID.TID 0000.0001) %MON ad_dynstat_adsalt_del2       =   2.4310646116590E-05
(PID.TID 0000.0001) %MON ad_dynstat_adsst_max         =   1.0940658019511E-05
(PID.TID 0000.0001) %MON ad_dynstat_adsst_min         =  -2.8975748734309E-05
(PID.TID 0000.0001) %MON ad_dynstat_adsst_mean        =  -2.3838939390684E-07
(PID.TID 0000.0001) %MON ad_dynstat_adsst_sd          =   2.2632000243420E-06
(PID.TID 0000.0001) %MON ad_dynstat_adsst_del2        =   1.8128683037619E-07
(PID.TID 0000.0001) %MON ad_dynstat_adsss_max         =   8.0046927361984E-05
(PID.TID 0000.0001) %MON ad_dynstat_adsss_min         =  -3.7156814905035E-05
(PID.TID 0000.0001) %MON ad_dynstat_adsss_mean        =   3.9669423308052E-07
(PID.TID 0000.0001) %MON ad_dynstat_adsss_sd          =   6.4039785725613E-06
(PID.TID 0000.0001) %MON ad_dynstat_adsss_del2        =   5.2407462625285E-07
(PID.TID 0000.0001) %MON ad_extforcing_adqnet_max     =   0.0000000000000E+00
(PID.TID 0000.0001) %MON ad_extforcing_adqnet_min     =   0.0000000000000E+00
(PID.TID 0000.0001) %MON ad_extforcing_adqnet_mean    =   0.0000000000000E+00
(PID.TID 0000.0001) %MON ad_extforcing_adqnet_sd      =   0.0000000000000E+00
(PID.TID 0000.0001) %MON ad_extforcing_adqnet_del2    =   0.0000000000000E+00
(PID.TID 0000.0001) %MON ad_extforcing_adempmr_max    =   1.2909485960515E+01
(PID.TID 0000.0001) %MON ad_extforcing_adempmr_min    =  -7.1775384758394E+00
(PID.TID 0000.0001) %MON ad_extforcing_adempmr_mean   =   2.9461697433291E-02
(PID.TID 0000.0001) %MON ad_extforcing_adempmr_sd     =   8.4905481914710E-01
(PID.TID 0000.0001) %MON ad_extforcing_adempmr_del2   =   8.9154271925826E-02
(PID.TID 0000.0001) %MON ad_extforcing_adfu_max       =   0.0000000000000E+00
(PID.TID 0000.0001) %MON ad_extforcing_adfu_min       =   0.0000000000000E+00
(PID.TID 0000.0001) %MON ad_extforcing_adfu_mean      =   0.0000000000000E+00
(PID.TID 0000.0001) %MON ad_extforcing_adfu_sd        =   0.0000000000000E+00
(PID.TID 0000.0001) %MON ad_extforcing_adfu_del2      =   0.0000000000000E+00
(PID.TID 0000.0001) %MON ad_extforcing_adfv_max       =   0.0000000000000E+00
(PID.TID 0000.0001) %MON ad_extforcing_adfv_min       =   0.0000000000000E+00
(PID.TID 0000.0001) %MON ad_extforcing_adfv_mean      =   0.0000000000000E+00
(PID.TID 0000.0001) %MON ad_extforcing_adfv_sd        =   0.0000000000000E+00
(PID.TID 0000.0001) %MON ad_extforcing_adfv_del2      =   0.0000000000000E+00
(PID.TID 0000.0001) %MON ad_advcfl_aduvel_max         =   6.9190326046783E-04
(PID.TID 0000.0001) %MON ad_advcfl_advvel_max         =   3.2863919322420E-03
(PID.TID 0000.0001) %MON ad_advcfl_adwvel_max         =   4.9702207635607E+01
(PID.TID 0000.0001) %MON ad_advcfl_adW_hf_max         =   6.4763482676701E+01
(PID.TID 0000.0001) // =======================================================
(PID.TID 0000.0001) // End MONITOR dynamic field statistics
(PID.TID 0000.0001) // =======================================================
 cg2d: Sum(rhs),rhsMax =  -8.50741833380522E-14  1.84321832463246E-08
time,SST,SSS,fu,fv,Q,E-P,i0,i1,a,b =   4.6656E+06 -4.2747E-01  3.4469E+01 -1.8264E-02 -1.2518E-02  2.3296E+02  0.0000E+00     2     3  3.0000E-01  7.0000E-01
time,fu0,fu1,fu =   4.6656E+06 -1.4435E-02 -2.7199E-02 -1.8264E-02  3.000000000000000E-01  7.000000000000000E-01
 cg2d: Sum(rhs),rhsMax =   2.52887294438509E-12  8.91497210429915E+00
time,SST,SSS,fu,fv,Q,E-P,i0,i1,a,b =   4.7088E+06 -4.2167E-01  3.4471E+01 -1.8477E-02 -1.2234E-02  2.3254E+02  0.0000E+00     2     3  3.1667E-01  6.8333E-01
time,fu0,fu1,fu =   4.7088E+06 -1.4435E-02 -2.7199E-02 -1.8477E-02  3.166666666666667E-01  6.833333333333333E-01
 cg2d: Sum(rhs),rhsMax =   2.27821234100034E-12  8.91793955647196E+00
time,SST,SSS,fu,fv,Q,E-P,i0,i1,a,b =   4.7520E+06 -4.1587E-01  3.4474E+01 -1.8689E-02 -1.1950E-02  2.3212E+02  0.0000E+00     2     3  3.3333E-01  6.6667E-01
time,fu0,fu1,fu =   4.7520E+06 -1.4435E-02 -2.7199E-02 -1.8689E-02  3.333333333333333E-01  6.666666666666667E-01
 cg2d: Sum(rhs),rhsMax =   1.81727549675159E-12  8.90561081994298E+00
(PID.TID 0000.0001) // =======================================================
(PID.TID 0000.0001) // Begin MONITOR dynamic field statistics
(PID.TID 0000.0001) // =======================================================
(PID.TID 0000.0001) %MON ad_time_tsnumber             =                   111
(PID.TID 0000.0001) %MON ad_time_secondsf             =   4.7952000000000E+06
(PID.TID 0000.0001) %MON ad_dynstat_adeta_max         =   1.8039377743344E-03
(PID.TID 0000.0001) %MON ad_dynstat_adeta_min         =  -2.7014462063653E-03
(PID.TID 0000.0001) %MON ad_dynstat_adeta_mean        =   4.0736254816633E-06
(PID.TID 0000.0001) %MON ad_dynstat_adeta_sd          =   2.1351358173091E-04
(PID.TID 0000.0001) %MON ad_dynstat_adeta_del2        =   1.4299394467037E-05
(PID.TID 0000.0001) %MON ad_dynstat_aduvel_max        =   6.7835654704980E-03
(PID.TID 0000.0001) %MON ad_dynstat_aduvel_min        =  -1.7179884227964E-03
(PID.TID 0000.0001) %MON ad_dynstat_aduvel_mean       =   1.0037469674105E-05
(PID.TID 0000.0001) %MON ad_dynstat_aduvel_sd         =   1.4323897681859E-04
(PID.TID 0000.0001) %MON ad_dynstat_aduvel_del2       =   7.3533521540846E-06
(PID.TID 0000.0001) %MON ad_dynstat_advvel_max        =   3.6298334229864E-02
(PID.TID 0000.0001) %MON ad_dynstat_advvel_min        =  -1.7269111750712E-02
(PID.TID 0000.0001) %MON ad_dynstat_advvel_mean       =  -4.1073561263389E-06
(PID.TID 0000.0001) %MON ad_dynstat_advvel_sd         =   1.5050811582452E-03
(PID.TID 0000.0001) %MON ad_dynstat_advvel_del2       =   1.2350939172262E-04
(PID.TID 0000.0001) %MON ad_dynstat_adwvel_max        =   3.0400070459089E-01
(PID.TID 0000.0001) %MON ad_dynstat_adwvel_min        =  -2.9539390614688E-01
(PID.TID 0000.0001) %MON ad_dynstat_adwvel_mean       =   4.5927226075785E-05
(PID.TID 0000.0001) %MON ad_dynstat_adwvel_sd         =   1.2227688593821E-02
(PID.TID 0000.0001) %MON ad_dynstat_adwvel_del2       =   1.0355758315252E-03
(PID.TID 0000.0001) %MON ad_dynstat_adtheta_max       =   7.4101108804290E-04
(PID.TID 0000.0001) %MON ad_dynstat_adtheta_min       =  -8.5673400634011E-04
(PID.TID 0000.0001) %MON ad_dynstat_adtheta_mean      =   3.6565523386690E-08
(PID.TID 0000.0001) %MON ad_dynstat_adtheta_sd        =   7.3396062672582E-05
(PID.TID 0000.0001) %MON ad_dynstat_adtheta_del2      =   6.6879857554674E-06
(PID.TID 0000.0001) %MON ad_dynstat_adsalt_max        =   4.3986159540090E-03
(PID.TID 0000.0001) %MON ad_dynstat_adsalt_min        =  -3.6870521258577E-03
(PID.TID 0000.0001) %MON ad_dynstat_adsalt_mean       =  -3.5165024318536E-07
(PID.TID 0000.0001) %MON ad_dynstat_adsalt_sd         =   3.3998507458050E-04
(PID.TID 0000.0001) %MON ad_dynstat_adsalt_del2       =   2.9272290254165E-05
(PID.TID 0000.0001) %MON ad_dynstat_adsst_max         =   1.0959906739963E-05
(PID.TID 0000.0001) %MON ad_dynstat_adsst_min         =  -3.7008871320158E-05
(PID.TID 0000.0001) %MON ad_dynstat_adsst_mean        =  -2.8214695606641E-07
(PID.TID 0000.0001) %MON ad_dynstat_adsst_sd          =   2.6234095976251E-06
(PID.TID 0000.0001) %MON ad_dynstat_adsst_del2        =   2.1897693963366E-07
(PID.TID 0000.0001) %MON ad_dynstat_adsss_max         =   1.0323883386574E-04
(PID.TID 0000.0001) %MON ad_dynstat_adsss_min         =  -3.9339544035934E-05
(PID.TID 0000.0001) %MON ad_dynstat_adsss_mean        =   4.8348028484942E-07
(PID.TID 0000.0001) %MON ad_dynstat_adsss_sd          =   7.4443000045307E-06
(PID.TID 0000.0001) %MON ad_dynstat_adsss_del2        =   6.3696965851138E-07
(PID.TID 0000.0001) %MON ad_extforcing_adqnet_max     =   0.0000000000000E+00
(PID.TID 0000.0001) %MON ad_extforcing_adqnet_min     =   0.0000000000000E+00
(PID.TID 0000.0001) %MON ad_extforcing_adqnet_mean    =   0.0000000000000E+00
(PID.TID 0000.0001) %MON ad_extforcing_adqnet_sd      =   0.0000000000000E+00
(PID.TID 0000.0001) %MON ad_extforcing_adqnet_del2    =   0.0000000000000E+00
(PID.TID 0000.0001) %MON ad_extforcing_adempmr_max    =   1.7668915634762E+01
(PID.TID 0000.0001) %MON ad_extforcing_adempmr_min    =  -9.8572864870485E+00
(PID.TID 0000.0001) %MON ad_extforcing_adempmr_mean   =   4.0348065731660E-02
(PID.TID 0000.0001) %MON ad_extforcing_adempmr_sd     =   1.1742146985523E+00
(PID.TID 0000.0001) %MON ad_extforcing_adempmr_del2   =   1.2203976810446E-01
(PID.TID 0000.0001) %MON ad_extforcing_adfu_max       =   0.0000000000000E+00
(PID.TID 0000.0001) %MON ad_extforcing_adfu_min       =   0.0000000000000E+00
(PID.TID 0000.0001) %MON ad_extforcing_adfu_mean      =   0.0000000000000E+00
(PID.TID 0000.0001) %MON ad_extforcing_adfu_sd        =   0.0000000000000E+00
(PID.TID 0000.0001) %MON ad_extforcing_adfu_del2      =   0.0000000000000E+00
(PID.TID 0000.0001) %MON ad_extforcing_adfv_max       =   0.0000000000000E+00
(PID.TID 0000.0001) %MON ad_extforcing_adfv_min       =   0.0000000000000E+00
(PID.TID 0000.0001) %MON ad_extforcing_adfv_mean      =   0.0000000000000E+00
(PID.TID 0000.0001) %MON ad_extforcing_adfv_sd        =   0.0000000000000E+00
(PID.TID 0000.0001) %MON ad_extforcing_adfv_del2      =   0.0000000000000E+00
(PID.TID 0000.0001) %MON ad_advcfl_aduvel_max         =   7.6091184499229E-04
(PID.TID 0000.0001) %MON ad_advcfl_advvel_max         =   3.5260920927859E-03
(PID.TID 0000.0001) %MON ad_advcfl_adwvel_max         =   6.1082932271287E+01
(PID.TID 0000.0001) %MON ad_advcfl_adW_hf_max         =   7.9592911747434E+01
(PID.TID 0000.0001) // =======================================================
(PID.TID 0000.0001) // End MONITOR dynamic field statistics
(PID.TID 0000.0001) // =======================================================
 cg2d: Sum(rhs),rhsMax =   4.08591734832381E-14  1.95807265261797E-08
 myIter=  110
 ph-mnc in addummy param  T
 ph-mnc in addummy myiter  110
(PID.TID 0000.0001) // =======================================================
(PID.TID 0000.0001) // Begin MONITOR dynamic field statistics
(PID.TID 0000.0001) // =======================================================
(PID.TID 0000.0001) %MON ad_time_tsnumber             =                   110
(PID.TID 0000.0001) %MON ad_time_secondsf             =   4.7520000000000E+06
(PID.TID 0000.0001) %MON ad_dynstat_adeta_max         =   1.9774563315578E-03
(PID.TID 0000.0001) %MON ad_dynstat_adeta_min         =  -2.9362202684367E-03
(PID.TID 0000.0001) %MON ad_dynstat_adeta_mean        =   4.7479166476067E-06
(PID.TID 0000.0001) %MON ad_dynstat_adeta_sd          =   2.3353295123741E-04
(PID.TID 0000.0001) %MON ad_dynstat_adeta_del2        =   1.6269349939382E-05
(PID.TID 0000.0001) %MON ad_dynstat_aduvel_max        =   7.3129612823439E-03
(PID.TID 0000.0001) %MON ad_dynstat_aduvel_min        =  -1.7839349294924E-03
(PID.TID 0000.0001) %MON ad_dynstat_aduvel_mean       =   1.2179291013667E-05
(PID.TID 0000.0001) %MON ad_dynstat_aduvel_sd         =   1.5414934040702E-04
(PID.TID 0000.0001) %MON ad_dynstat_aduvel_del2       =   7.9076065454389E-06
(PID.TID 0000.0001) %MON ad_dynstat_advvel_max        =   3.8442397728495E-02
(PID.TID 0000.0001) %MON ad_dynstat_advvel_min        =  -1.8286076859661E-02
(PID.TID 0000.0001) %MON ad_dynstat_advvel_mean       =  -9.8240156389421E-06
(PID.TID 0000.0001) %MON ad_dynstat_advvel_sd         =   1.6034469999180E-03
(PID.TID 0000.0001) %MON ad_dynstat_advvel_del2       =   1.3043973120786E-04
(PID.TID 0000.0001) %MON ad_dynstat_adwvel_max        =   3.6377126589382E-01
(PID.TID 0000.0001) %MON ad_dynstat_adwvel_min        =  -3.5500849671703E-01
(PID.TID 0000.0001) %MON ad_dynstat_adwvel_mean       =   5.1724909717285E-05
(PID.TID 0000.0001) %MON ad_dynstat_adwvel_sd         =   1.4664523908172E-02
(PID.TID 0000.0001) %MON ad_dynstat_adwvel_del2       =   1.2318275731613E-03
(PID.TID 0000.0001) %MON ad_dynstat_adtheta_max       =   8.7718529191134E-04
(PID.TID 0000.0001) %MON ad_dynstat_adtheta_min       =  -1.0258636611952E-03
(PID.TID 0000.0001) %MON ad_dynstat_adtheta_mean      =   5.3631578139644E-08
(PID.TID 0000.0001) %MON ad_dynstat_adtheta_sd        =   8.6765603377277E-05
(PID.TID 0000.0001) %MON ad_dynstat_adtheta_del2      =   7.8684175729419E-06
(PID.TID 0000.0001) %MON ad_dynstat_adsalt_max        =   5.2669272132281E-03
(PID.TID 0000.0001) %MON ad_dynstat_adsalt_min        =  -4.3686559272507E-03
(PID.TID 0000.0001) %MON ad_dynstat_adsalt_mean       =  -4.5964323984141E-07
(PID.TID 0000.0001) %MON ad_dynstat_adsalt_sd         =   4.0177398443977E-04
(PID.TID 0000.0001) %MON ad_dynstat_adsalt_del2       =   3.4429383845754E-05
(PID.TID 0000.0001) %MON ad_dynstat_adsst_max         =   1.3200898821132E-05
(PID.TID 0000.0001) %MON ad_dynstat_adsst_min         =  -4.5560404808724E-05
(PID.TID 0000.0001) %MON ad_dynstat_adsst_mean        =  -3.2599795789905E-07
(PID.TID 0000.0001) %MON ad_dynstat_adsst_sd          =   3.0292266333224E-06
(PID.TID 0000.0001) %MON ad_dynstat_adsst_del2        =   2.6061283193118E-07
(PID.TID 0000.0001) %MON ad_dynstat_adsss_max         =   1.2847164991844E-04
(PID.TID 0000.0001) %MON ad_dynstat_adsss_min         =  -4.8261846795888E-05
(PID.TID 0000.0001) %MON ad_dynstat_adsss_mean        =   5.7139729014415E-07
(PID.TID 0000.0001) %MON ad_dynstat_adsss_sd          =   8.6134894641427E-06
(PID.TID 0000.0001) %MON ad_dynstat_adsss_del2        =   7.5986996146941E-07
(PID.TID 0000.0001) %MON ad_extforcing_adqnet_max     =   0.0000000000000E+00
(PID.TID 0000.0001) %MON ad_extforcing_adqnet_min     =   0.0000000000000E+00
(PID.TID 0000.0001) %MON ad_extforcing_adqnet_mean    =   0.0000000000000E+00
(PID.TID 0000.0001) %MON ad_extforcing_adqnet_sd      =   0.0000000000000E+00
(PID.TID 0000.0001) %MON ad_extforcing_adqnet_del2    =   0.0000000000000E+00
(PID.TID 0000.0001) %MON ad_extforcing_adempmr_max    =   2.3359034683427E+01
(PID.TID 0000.0001) %MON ad_extforcing_adempmr_min    =  -1.3067052989199E+01
(PID.TID 0000.0001) %MON ad_extforcing_adempmr_mean   =   5.3362525876024E-02
(PID.TID 0000.0001) %MON ad_extforcing_adempmr_sd     =   1.5627787893181E+00
(PID.TID 0000.0001) %MON ad_extforcing_adempmr_del2   =   1.6124771925490E-01
(PID.TID 0000.0001) %MON ad_extforcing_adfu_max       =   0.0000000000000E+00
(PID.TID 0000.0001) %MON ad_extforcing_adfu_min       =   0.0000000000000E+00
(PID.TID 0000.0001) %MON ad_extforcing_adfu_mean      =   0.0000000000000E+00
(PID.TID 0000.0001) %MON ad_extforcing_adfu_sd        =   0.0000000000000E+00
(PID.TID 0000.0001) %MON ad_extforcing_adfu_del2      =   0.0000000000000E+00
(PID.TID 0000.0001) %MON ad_extforcing_adfv_max       =   0.0000000000000E+00
(PID.TID 0000.0001) %MON ad_extforcing_adfv_min       =   0.0000000000000E+00
(PID.TID 0000.0001) %MON ad_extforcing_adfv_mean      =   0.0000000000000E+00
(PID.TID 0000.0001) %MON ad_extforcing_adfv_sd        =   0.0000000000000E+00
(PID.TID 0000.0001) %MON ad_extforcing_adfv_del2      =   0.0000000000000E+00
(PID.TID 0000.0001) %MON ad_advcfl_aduvel_max         =   8.2029411905963E-04
(PID.TID 0000.0001) %MON ad_advcfl_advvel_max         =   3.7343706683556E-03
(PID.TID 0000.0001) %MON ad_advcfl_adwvel_max         =   7.3092645054014E+01
(PID.TID 0000.0001) %MON ad_advcfl_adW_hf_max         =   9.5241931434018E+01
(PID.TID 0000.0001) // =======================================================
(PID.TID 0000.0001) // End MONITOR dynamic field statistics
(PID.TID 0000.0001) // =======================================================
 cg2d: Sum(rhs),rhsMax =   3.31359892503327E-13  2.19391554619288E-08
(PID.TID 0000.0001) // =======================================================
(PID.TID 0000.0001) // Begin MONITOR dynamic field statistics
(PID.TID 0000.0001) // =======================================================
(PID.TID 0000.0001) %MON ad_time_tsnumber             =                   109
(PID.TID 0000.0001) %MON ad_time_secondsf             =   4.7088000000000E+06
(PID.TID 0000.0001) %MON ad_dynstat_adeta_max         =   2.1635831420064E-03
(PID.TID 0000.0001) %MON ad_dynstat_adeta_min         =  -3.2262492066097E-03
(PID.TID 0000.0001) %MON ad_dynstat_adeta_mean        =   5.4280409141783E-06
(PID.TID 0000.0001) %MON ad_dynstat_adeta_sd          =   2.5430995921704E-04
(PID.TID 0000.0001) %MON ad_dynstat_adeta_del2        =   1.8269921345990E-05
(PID.TID 0000.0001) %MON ad_dynstat_aduvel_max        =   7.7958992562170E-03
(PID.TID 0000.0001) %MON ad_dynstat_aduvel_min        =  -1.8046119646577E-03
(PID.TID 0000.0001) %MON ad_dynstat_aduvel_mean       =   1.4284581145112E-05
(PID.TID 0000.0001) %MON ad_dynstat_aduvel_sd         =   1.6501125363346E-04
(PID.TID 0000.0001) %MON ad_dynstat_aduvel_del2       =   8.4686471044899E-06
(PID.TID 0000.0001) %MON ad_dynstat_advvel_max        =   4.0248538965770E-02
(PID.TID 0000.0001) %MON ad_dynstat_advvel_min        =  -1.9165571021578E-02
(PID.TID 0000.0001) %MON ad_dynstat_advvel_mean       =  -1.5917071341997E-05
(PID.TID 0000.0001) %MON ad_dynstat_advvel_sd         =   1.6859705602333E-03
(PID.TID 0000.0001) %MON ad_dynstat_advvel_del2       =   1.3597687199404E-04
(PID.TID 0000.0001) %MON ad_dynstat_adwvel_max        =   4.2594207073079E-01
(PID.TID 0000.0001) %MON ad_dynstat_adwvel_min        =  -4.1727529510180E-01
(PID.TID 0000.0001) %MON ad_dynstat_adwvel_mean       =   5.7209580142007E-05
(PID.TID 0000.0001) %MON ad_dynstat_adwvel_sd         =   1.7202044974833E-02
(PID.TID 0000.0001) %MON ad_dynstat_adwvel_del2       =   1.4349931009437E-03
(PID.TID 0000.0001) %MON ad_dynstat_adtheta_max       =   1.0166813158976E-03
(PID.TID 0000.0001) %MON ad_dynstat_adtheta_min       =  -1.2020756176536E-03
(PID.TID 0000.0001) %MON ad_dynstat_adtheta_mean      =   7.4032364872053E-08
(PID.TID 0000.0001) %MON ad_dynstat_adtheta_sd        =   1.0051262551148E-04
(PID.TID 0000.0001) %MON ad_dynstat_adtheta_del2      =   9.0774002265697E-06
(PID.TID 0000.0001) %MON ad_dynstat_adsalt_max        =   6.1715909662478E-03
(PID.TID 0000.0001) %MON ad_dynstat_adsalt_min        =  -5.0743433060359E-03
(PID.TID 0000.0001) %MON ad_dynstat_adsalt_mean       =  -5.8425924017445E-07
(PID.TID 0000.0001) %MON ad_dynstat_adsalt_sd         =   4.6525542222796E-04
(PID.TID 0000.0001) %MON ad_dynstat_adsalt_del2       =   3.9705117668285E-05
(PID.TID 0000.0001) %MON ad_dynstat_adsst_max         =   1.7156545629180E-05
(PID.TID 0000.0001) %MON ad_dynstat_adsst_min         =  -5.4530143781951E-05
(PID.TID 0000.0001) %MON ad_dynstat_adsst_mean        =  -3.6937321151745E-07
(PID.TID 0000.0001) %MON ad_dynstat_adsst_sd          =   3.4719155791448E-06
(PID.TID 0000.0001) %MON ad_dynstat_adsst_del2        =   3.0362183468018E-07
(PID.TID 0000.0001) %MON ad_dynstat_adsss_max         =   1.5501444665404E-04
(PID.TID 0000.0001) %MON ad_dynstat_adsss_min         =  -6.0762018387171E-05
(PID.TID 0000.0001) %MON ad_dynstat_adsss_mean        =   6.5897919257051E-07
(PID.TID 0000.0001) %MON ad_dynstat_adsss_sd          =   9.8899992372608E-06
(PID.TID 0000.0001) %MON ad_dynstat_adsss_del2        =   8.8676225812211E-07
(PID.TID 0000.0001) %MON ad_extforcing_adqnet_max     =   0.0000000000000E+00
(PID.TID 0000.0001) %MON ad_extforcing_adqnet_min     =   0.0000000000000E+00
(PID.TID 0000.0001) %MON ad_extforcing_adqnet_mean    =   0.0000000000000E+00
(PID.TID 0000.0001) %MON ad_extforcing_adqnet_sd      =   0.0000000000000E+00
(PID.TID 0000.0001) %MON ad_extforcing_adqnet_del2    =   0.0000000000000E+00
(PID.TID 0000.0001) %MON ad_extforcing_adempmr_max    =   3.0028626845222E+01
(PID.TID 0000.0001) %MON ad_extforcing_adempmr_min    =  -1.6850173330675E+01
(PID.TID 0000.0001) %MON ad_extforcing_adempmr_mean   =   6.8514989121113E-02
(PID.TID 0000.0001) %MON ad_extforcing_adempmr_sd     =   2.0180072868093E+00
(PID.TID 0000.0001) %MON ad_extforcing_adempmr_del2   =   2.0707552718985E-01
(PID.TID 0000.0001) %MON ad_extforcing_adfu_max       =   0.0000000000000E+00
(PID.TID 0000.0001) %MON ad_extforcing_adfu_min       =   0.0000000000000E+00
(PID.TID 0000.0001) %MON ad_extforcing_adfu_mean      =   0.0000000000000E+00
(PID.TID 0000.0001) %MON ad_extforcing_adfu_sd        =   0.0000000000000E+00
(PID.TID 0000.0001) %MON ad_extforcing_adfu_del2      =   0.0000000000000E+00
(PID.TID 0000.0001) %MON ad_extforcing_adfv_max       =   0.0000000000000E+00
(PID.TID 0000.0001) %MON ad_extforcing_adfv_min       =   0.0000000000000E+00
(PID.TID 0000.0001) %MON ad_extforcing_adfv_mean      =   0.0000000000000E+00
(PID.TID 0000.0001) %MON ad_extforcing_adfv_sd        =   0.0000000000000E+00
(PID.TID 0000.0001) %MON ad_extforcing_adfv_del2      =   0.0000000000000E+00
(PID.TID 0000.0001) %MON ad_advcfl_aduvel_max         =   8.7446522219334E-04
(PID.TID 0000.0001) %MON ad_advcfl_advvel_max         =   3.9098228060455E-03
(PID.TID 0000.0001) %MON ad_advcfl_adwvel_max         =   8.5584639328233E+01
(PID.TID 0000.0001) %MON ad_advcfl_adW_hf_max         =   1.1151937851861E+02
(PID.TID 0000.0001) // =======================================================
(PID.TID 0000.0001) // End MONITOR dynamic field statistics
(PID.TID 0000.0001) // =======================================================
 cg2d: Sum(rhs),rhsMax =   4.31099246216888E-13  2.44561362250583E-08
time,SST,SSS,fu,fv,Q,E-P,i0,i1,a,b =   4.5360E+06 -4.4487E-01  3.4461E+01 -1.7626E-02 -1.3371E-02  2.3421E+02  0.0000E+00     2     3  2.5000E-01  7.5000E-01
time,fu0,fu1,fu =   4.5360E+06 -1.4435E-02 -2.7199E-02 -1.7626E-02  2.500000000000000E-01  7.500000000000000E-01
 cg2d: Sum(rhs),rhsMax =   2.70812539060472E-12  9.12079410559005E+00
time,SST,SSS,fu,fv,Q,E-P,i0,i1,a,b =   4.5792E+06 -4.3907E-01  3.4463E+01 -1.7838E-02 -1.3087E-02  2.3379E+02  0.0000E+00     2     3  2.6667E-01  7.3333E-01
time,fu0,fu1,fu =   4.5792E+06 -1.4435E-02 -2.7199E-02 -1.7838E-02  2.666666666666667E-01  7.333333333333334E-01
 cg2d: Sum(rhs),rhsMax =   2.76754313910388E-12  8.86256540630887E+00
time,SST,SSS,fu,fv,Q,E-P,i0,i1,a,b =   4.6224E+06 -4.3327E-01  3.4466E+01 -1.8051E-02 -1.2803E-02  2.3337E+02  0.0000E+00     2     3  2.8333E-01  7.1667E-01
time,fu0,fu1,fu =   4.6224E+06 -1.4435E-02 -2.7199E-02 -1.8051E-02  2.833333333333333E-01  7.166666666666667E-01
 cg2d: Sum(rhs),rhsMax =   2.79215539578104E-12  8.89641373753398E+00
(PID.TID 0000.0001) // =======================================================
(PID.TID 0000.0001) // Begin MONITOR dynamic field statistics
(PID.TID 0000.0001) // =======================================================
(PID.TID 0000.0001) %MON ad_time_tsnumber             =                   108
(PID.TID 0000.0001) %MON ad_time_secondsf             =   4.6656000000000E+06
(PID.TID 0000.0001) %MON ad_dynstat_adeta_max         =   2.3595400911214E-03
(PID.TID 0000.0001) %MON ad_dynstat_adeta_min         =  -3.5542930838661E-03
(PID.TID 0000.0001) %MON ad_dynstat_adeta_mean        =   6.1063430861381E-06
(PID.TID 0000.0001) %MON ad_dynstat_adeta_sd          =   2.7552370551679E-04
(PID.TID 0000.0001) %MON ad_dynstat_adeta_del2        =   2.0252126841828E-05
(PID.TID 0000.0001) %MON ad_dynstat_aduvel_max        =   8.2497586375891E-03
(PID.TID 0000.0001) %MON ad_dynstat_aduvel_min        =  -1.7780747367089E-03
(PID.TID 0000.0001) %MON ad_dynstat_aduvel_mean       =   1.6238982970552E-05
(PID.TID 0000.0001) %MON ad_dynstat_aduvel_sd         =   1.7673723527361E-04
(PID.TID 0000.0001) %MON ad_dynstat_aduvel_del2       =   9.0110951286443E-06
(PID.TID 0000.0001) %MON ad_dynstat_advvel_max        =   4.1704991041905E-02
(PID.TID 0000.0001) %MON ad_dynstat_advvel_min        =  -1.9945000164216E-02
(PID.TID 0000.0001) %MON ad_dynstat_advvel_mean       =  -2.2198523578574E-05
(PID.TID 0000.0001) %MON ad_dynstat_advvel_sd         =   1.7526123444165E-03
(PID.TID 0000.0001) %MON ad_dynstat_advvel_del2       =   1.4010301098584E-04
(PID.TID 0000.0001) %MON ad_dynstat_adwvel_max        =   4.8984586376998E-01
(PID.TID 0000.0001) %MON ad_dynstat_adwvel_min        =  -4.8115070660796E-01
(PID.TID 0000.0001) %MON ad_dynstat_adwvel_mean       =   6.2462348717806E-05
(PID.TID 0000.0001) %MON ad_dynstat_adwvel_sd         =   1.9809635723873E-02
(PID.TID 0000.0001) %MON ad_dynstat_adwvel_del2       =   1.6416571812888E-03
(PID.TID 0000.0001) %MON ad_dynstat_adtheta_max       =   1.1783700322652E-03
(PID.TID 0000.0001) %MON ad_dynstat_adtheta_min       =  -1.3836623796233E-03
(PID.TID 0000.0001) %MON ad_dynstat_adtheta_mean      =   9.7290050128856E-08
(PID.TID 0000.0001) %MON ad_dynstat_adtheta_sd        =   1.1445649022907E-04
(PID.TID 0000.0001) %MON ad_dynstat_adtheta_del2      =   1.0297508009227E-05
(PID.TID 0000.0001) %MON ad_dynstat_adsalt_max        =   7.1038394152476E-03
(PID.TID 0000.0001) %MON ad_dynstat_adsalt_min        =  -5.7948880285989E-03
(PID.TID 0000.0001) %MON ad_dynstat_adsalt_mean       =  -7.2319739995662E-07
(PID.TID 0000.0001) %MON ad_dynstat_adsalt_sd         =   5.2958441711405E-04
(PID.TID 0000.0001) %MON ad_dynstat_adsalt_del2       =   4.5022729845159E-05
(PID.TID 0000.0001) %MON ad_dynstat_adsst_max         =   2.4292001592613E-05
(PID.TID 0000.0001) %MON ad_dynstat_adsst_min         =  -6.3808364114558E-05
(PID.TID 0000.0001) %MON ad_dynstat_adsst_mean        =  -3.9966539936220E-07
(PID.TID 0000.0001) %MON ad_dynstat_adsst_sd          =   3.9778488638680E-06
(PID.TID 0000.0001) %MON ad_dynstat_adsst_del2        =   3.6145882794840E-07
(PID.TID 0000.0001) %MON ad_dynstat_adsss_max         =   1.8253339047728E-04
(PID.TID 0000.0001) %MON ad_dynstat_adsss_min         =  -8.3765134339197E-05
(PID.TID 0000.0001) %MON ad_dynstat_adsss_mean        =   7.0723284126248E-07
(PID.TID 0000.0001) %MON ad_dynstat_adsss_sd          =   1.1398532253115E-05
(PID.TID 0000.0001) %MON ad_dynstat_adsss_del2        =   1.0596821812260E-06
(PID.TID 0000.0001) %MON ad_extforcing_adqnet_max     =   0.0000000000000E+00
(PID.TID 0000.0001) %MON ad_extforcing_adqnet_min     =   0.0000000000000E+00
(PID.TID 0000.0001) %MON ad_extforcing_adqnet_mean    =   0.0000000000000E+00
(PID.TID 0000.0001) %MON ad_extforcing_adqnet_sd      =   0.0000000000000E+00
(PID.TID 0000.0001) %MON ad_extforcing_adqnet_del2    =   0.0000000000000E+00
(PID.TID 0000.0001) %MON ad_extforcing_adempmr_max    =   3.7714632118943E+01
(PID.TID 0000.0001) %MON ad_extforcing_adempmr_min    =  -2.1220921463488E+01
(PID.TID 0000.0001) %MON ad_extforcing_adempmr_mean   =   8.3664029175971E-02
(PID.TID 0000.0001) %MON ad_extforcing_adempmr_sd     =   2.5517886899101E+00
(PID.TID 0000.0001) %MON ad_extforcing_adempmr_del2   =   2.6151715821978E-01
(PID.TID 0000.0001) %MON ad_extforcing_adfu_max       =   0.0000000000000E+00
(PID.TID 0000.0001) %MON ad_extforcing_adfu_min       =   0.0000000000000E+00
(PID.TID 0000.0001) %MON ad_extforcing_adfu_mean      =   0.0000000000000E+00
(PID.TID 0000.0001) %MON ad_extforcing_adfu_sd        =   0.0000000000000E+00
(PID.TID 0000.0001) %MON ad_extforcing_adfu_del2      =   0.0000000000000E+00
(PID.TID 0000.0001) %MON ad_extforcing_adfv_max       =   0.0000000000000E+00
(PID.TID 0000.0001) %MON ad_extforcing_adfv_min       =   0.0000000000000E+00
(PID.TID 0000.0001) %MON ad_extforcing_adfv_mean      =   0.0000000000000E+00
(PID.TID 0000.0001) %MON ad_extforcing_adfv_sd        =   0.0000000000000E+00
(PID.TID 0000.0001) %MON ad_extforcing_adfv_del2      =   0.0000000000000E+00
(PID.TID 0000.0001) %MON ad_advcfl_aduvel_max         =   9.2537458258042E-04
(PID.TID 0000.0001) %MON ad_advcfl_advvel_max         =   4.0513054459005E-03
(PID.TID 0000.0001) %MON ad_advcfl_adwvel_max         =   9.8424843324945E+01
(PID.TID 0000.0001) %MON ad_advcfl_adW_hf_max         =   1.2825055342341E+02
(PID.TID 0000.0001) // =======================================================
(PID.TID 0000.0001) // End MONITOR dynamic field statistics
(PID.TID 0000.0001) // =======================================================
 cg2d: Sum(rhs),rhsMax =   5.50281930241231E-13  2.70900823058574E-08
(PID.TID 0000.0001) // =======================================================
(PID.TID 0000.0001) // Begin MONITOR dynamic field statistics
(PID.TID 0000.0001) // =======================================================
(PID.TID 0000.0001) %MON ad_time_tsnumber             =                   107
(PID.TID 0000.0001) %MON ad_time_secondsf             =   4.6224000000000E+06
(PID.TID 0000.0001) %MON ad_dynstat_adeta_max         =   2.5576644364554E-03
(PID.TID 0000.0001) %MON ad_dynstat_adeta_min         =  -3.9019761136600E-03
(PID.TID 0000.0001) %MON ad_dynstat_adeta_mean        =   6.7762787929734E-06
(PID.TID 0000.0001) %MON ad_dynstat_adeta_sd          =   2.9681874816153E-04
(PID.TID 0000.0001) %MON ad_dynstat_adeta_del2        =   2.2307818461875E-05
(PID.TID 0000.0001) %MON ad_dynstat_aduvel_max        =   8.6731665509986E-03
(PID.TID 0000.0001) %MON ad_dynstat_aduvel_min        =  -1.7077544347708E-03
(PID.TID 0000.0001) %MON ad_dynstat_aduvel_mean       =   1.8020022481236E-05
(PID.TID 0000.0001) %MON ad_dynstat_aduvel_sd         =   1.8982618813579E-04
(PID.TID 0000.0001) %MON ad_dynstat_aduvel_del2       =   9.6028599952558E-06
(PID.TID 0000.0001) %MON ad_dynstat_advvel_max        =   4.2802904553153E-02
(PID.TID 0000.0001) %MON ad_dynstat_advvel_min        =  -2.0617946003854E-02
(PID.TID 0000.0001) %MON ad_dynstat_advvel_mean       =  -2.8456259407707E-05
(PID.TID 0000.0001) %MON ad_dynstat_advvel_sd         =   1.8035021769168E-03
(PID.TID 0000.0001) %MON ad_dynstat_advvel_del2       =   1.4278474847116E-04
(PID.TID 0000.0001) %MON ad_dynstat_adwvel_max        =   5.5488028663843E-01
(PID.TID 0000.0001) %MON ad_dynstat_adwvel_min        =  -5.4562860876125E-01
(PID.TID 0000.0001) %MON ad_dynstat_adwvel_mean       =   6.7157036765073E-05
(PID.TID 0000.0001) %MON ad_dynstat_adwvel_sd         =   2.2458006331208E-02
(PID.TID 0000.0001) %MON ad_dynstat_adwvel_del2       =   1.8502221278618E-03
(PID.TID 0000.0001) %MON ad_dynstat_adtheta_max       =   1.3498858961414E-03
(PID.TID 0000.0001) %MON ad_dynstat_adtheta_min       =  -1.5689945885751E-03
(PID.TID 0000.0001) %MON ad_dynstat_adtheta_mean      =   1.2347246739695E-07
(PID.TID 0000.0001) %MON ad_dynstat_adtheta_sd        =   1.2842242971564E-04
(PID.TID 0000.0001) %MON ad_dynstat_adtheta_del2      =   1.1510326672827E-05
(PID.TID 0000.0001) %MON ad_dynstat_adsalt_max        =   8.0553060680479E-03
(PID.TID 0000.0001) %MON ad_dynstat_adsalt_min        =  -6.5203279782482E-03
(PID.TID 0000.0001) %MON ad_dynstat_adsalt_mean       =  -8.7660247733009E-07
(PID.TID 0000.0001) %MON ad_dynstat_adsalt_sd         =   5.9394344176001E-04
(PID.TID 0000.0001) %MON ad_dynstat_adsalt_del2       =   5.0300461214527E-05
(PID.TID 0000.0001) %MON ad_dynstat_adsst_max         =   3.0159414801650E-05
(PID.TID 0000.0001) %MON ad_dynstat_adsst_min         =  -7.3293250141290E-05
(PID.TID 0000.0001) %MON ad_dynstat_adsst_mean        =  -4.3644080801745E-07
(PID.TID 0000.0001) %MON ad_dynstat_adsst_sd          =   4.5085933937178E-06
(PID.TID 0000.0001) %MON ad_dynstat_adsst_del2        =   4.1652618835987E-07
(PID.TID 0000.0001) %MON ad_dynstat_adsss_max         =   2.1071865768943E-04
(PID.TID 0000.0001) %MON ad_dynstat_adsss_min         =  -1.0214895071751E-04
(PID.TID 0000.0001) %MON ad_dynstat_adsss_mean        =   7.7995068359782E-07
(PID.TID 0000.0001) %MON ad_dynstat_adsss_sd          =   1.2945481089611E-05
(PID.TID 0000.0001) %MON ad_dynstat_adsss_del2        =   1.2194456178599E-06
(PID.TID 0000.0001) %MON ad_extforcing_adqnet_max     =   0.0000000000000E+00
(PID.TID 0000.0001) %MON ad_extforcing_adqnet_min     =   0.0000000000000E+00
(PID.TID 0000.0001) %MON ad_extforcing_adqnet_mean    =   0.0000000000000E+00
(PID.TID 0000.0001) %MON ad_extforcing_adqnet_sd      =   0.0000000000000E+00
(PID.TID 0000.0001) %MON ad_extforcing_adqnet_del2    =   0.0000000000000E+00
(PID.TID 0000.0001) %MON ad_extforcing_adempmr_max    =   4.6442333252070E+01
(PID.TID 0000.0001) %MON ad_extforcing_adempmr_min    =  -2.6192057812689E+01
(PID.TID 0000.0001) %MON ad_extforcing_adempmr_mean   =   1.0079189208983E-01
(PID.TID 0000.0001) %MON ad_extforcing_adempmr_sd     =   3.1622313223328E+00
(PID.TID 0000.0001) %MON ad_extforcing_adempmr_del2   =   3.2305455187547E-01
(PID.TID 0000.0001) %MON ad_extforcing_adfu_max       =   0.0000000000000E+00
(PID.TID 0000.0001) %MON ad_extforcing_adfu_min       =   0.0000000000000E+00
(PID.TID 0000.0001) %MON ad_extforcing_adfu_mean      =   0.0000000000000E+00
(PID.TID 0000.0001) %MON ad_extforcing_adfu_sd        =   0.0000000000000E+00
(PID.TID 0000.0001) %MON ad_extforcing_adfu_del2      =   0.0000000000000E+00
(PID.TID 0000.0001) %MON ad_extforcing_adfv_max       =   0.0000000000000E+00
(PID.TID 0000.0001) %MON ad_extforcing_adfv_min       =   0.0000000000000E+00
(PID.TID 0000.0001) %MON ad_extforcing_adfv_mean      =   0.0000000000000E+00
(PID.TID 0000.0001) %MON ad_extforcing_adfv_sd        =   0.0000000000000E+00
(PID.TID 0000.0001) %MON ad_extforcing_adfv_del2      =   0.0000000000000E+00
(PID.TID 0000.0001) %MON ad_advcfl_aduvel_max         =   9.7286820492076E-04
(PID.TID 0000.0001) %MON ad_advcfl_advvel_max         =   4.1579589393104E-03
(PID.TID 0000.0001) %MON ad_advcfl_adwvel_max         =   1.1149222503619E+02
(PID.TID 0000.0001) %MON ad_advcfl_adW_hf_max         =   1.4527774777443E+02
(PID.TID 0000.0001) // =======================================================
(PID.TID 0000.0001) // End MONITOR dynamic field statistics
(PID.TID 0000.0001) // =======================================================
 cg2d: Sum(rhs),rhsMax =   5.34783148906597E-13  2.97774538243193E-08
(PID.TID 0000.0001) // =======================================================
(PID.TID 0000.0001) // Begin MONITOR dynamic field statistics
(PID.TID 0000.0001) // =======================================================
(PID.TID 0000.0001) %MON ad_time_tsnumber             =                   106
(PID.TID 0000.0001) %MON ad_time_secondsf             =   4.5792000000000E+06
(PID.TID 0000.0001) %MON ad_dynstat_adeta_max         =   2.7618495976622E-03
(PID.TID 0000.0001) %MON ad_dynstat_adeta_min         =  -4.2552097176656E-03
(PID.TID 0000.0001) %MON ad_dynstat_adeta_mean        =   7.4322047063137E-06
(PID.TID 0000.0001) %MON ad_dynstat_adeta_sd          =   3.1786779557320E-04
(PID.TID 0000.0001) %MON ad_dynstat_adeta_del2        =   2.4436244960043E-05
(PID.TID 0000.0001) %MON ad_dynstat_aduvel_max        =   9.0547531031675E-03
(PID.TID 0000.0001) %MON ad_dynstat_aduvel_min        =  -1.6491372667814E-03
(PID.TID 0000.0001) %MON ad_dynstat_aduvel_mean       =   1.9600297718164E-05
(PID.TID 0000.0001) %MON ad_dynstat_aduvel_sd         =   2.0420812282654E-04
(PID.TID 0000.0001) %MON ad_dynstat_aduvel_del2       =   1.0197130211081E-05
(PID.TID 0000.0001) %MON ad_dynstat_advvel_max        =   4.3537128026857E-02
(PID.TID 0000.0001) %MON ad_dynstat_advvel_min        =  -2.1152603004403E-02
(PID.TID 0000.0001) %MON ad_dynstat_advvel_mean       =  -3.4470889746699E-05
(PID.TID 0000.0001) %MON ad_dynstat_advvel_sd         =   1.8388014914045E-03
(PID.TID 0000.0001) %MON ad_dynstat_advvel_del2       =   1.4399112404928E-04
(PID.TID 0000.0001) %MON ad_dynstat_adwvel_max        =   6.2045697728778E-01
(PID.TID 0000.0001) %MON ad_dynstat_adwvel_min        =  -6.0980119826968E-01
(PID.TID 0000.0001) %MON ad_dynstat_adwvel_mean       =   7.1192179059482E-05
(PID.TID 0000.0001) %MON ad_dynstat_adwvel_sd         =   2.5119469357409E-02
(PID.TID 0000.0001) %MON ad_dynstat_adwvel_del2       =   2.0582365689775E-03
(PID.TID 0000.0001) %MON ad_dynstat_adtheta_max       =   1.5269026088252E-03
(PID.TID 0000.0001) %MON ad_dynstat_adtheta_min       =  -1.7564370093096E-03
(PID.TID 0000.0001) %MON ad_dynstat_adtheta_mean      =   1.5240495343211E-07
(PID.TID 0000.0001) %MON ad_dynstat_adtheta_sd        =   1.4224035163373E-04
(PID.TID 0000.0001) %MON ad_dynstat_adtheta_del2      =   1.2699053003254E-05
(PID.TID 0000.0001) %MON ad_dynstat_adsalt_max        =   9.0175949220816E-03
(PID.TID 0000.0001) %MON ad_dynstat_adsalt_min        =  -7.2848674363963E-03
(PID.TID 0000.0001) %MON ad_dynstat_adsalt_mean       =  -1.0435797978829E-06
(PID.TID 0000.0001) %MON ad_dynstat_adsalt_sd         =   6.5753792253294E-04
(PID.TID 0000.0001) %MON ad_dynstat_adsalt_del2       =   5.5463079278273E-05
(PID.TID 0000.0001) %MON ad_dynstat_adsst_max         =   3.6140275154431E-05
(PID.TID 0000.0001) %MON ad_dynstat_adsst_min         =  -8.2889687526494E-05
(PID.TID 0000.0001) %MON ad_dynstat_adsst_mean        =  -4.8153884256943E-07
(PID.TID 0000.0001) %MON ad_dynstat_adsst_sd          =   5.0209971724229E-06
(PID.TID 0000.0001) %MON ad_dynstat_adsst_del2        =   4.6832250862896E-07
(PID.TID 0000.0001) %MON ad_dynstat_adsss_max         =   2.3928067303613E-04
(PID.TID 0000.0001) %MON ad_dynstat_adsss_min         =  -1.2103703029140E-04
(PID.TID 0000.0001) %MON ad_dynstat_adsss_mean        =   8.7740581961546E-07
(PID.TID 0000.0001) %MON ad_dynstat_adsss_sd          =   1.4436958290118E-05
(PID.TID 0000.0001) %MON ad_dynstat_adsss_del2        =   1.3727082395398E-06
(PID.TID 0000.0001) %MON ad_extforcing_adqnet_max     =   0.0000000000000E+00
(PID.TID 0000.0001) %MON ad_extforcing_adqnet_min     =   0.0000000000000E+00
(PID.TID 0000.0001) %MON ad_extforcing_adqnet_mean    =   0.0000000000000E+00
(PID.TID 0000.0001) %MON ad_extforcing_adqnet_sd      =   0.0000000000000E+00
(PID.TID 0000.0001) %MON ad_extforcing_adqnet_del2    =   0.0000000000000E+00
(PID.TID 0000.0001) %MON ad_extforcing_adempmr_max    =   5.6226612797202E+01
(PID.TID 0000.0001) %MON ad_extforcing_adempmr_min    =  -3.1782331881902E+01
(PID.TID 0000.0001) %MON ad_extforcing_adempmr_mean   =   1.2033087784722E-01
(PID.TID 0000.0001) %MON ad_extforcing_adempmr_sd     =   3.8452068859298E+00
(PID.TID 0000.0001) %MON ad_extforcing_adempmr_del2   =   3.9148960491031E-01
(PID.TID 0000.0001) %MON ad_extforcing_adfu_max       =   0.0000000000000E+00
(PID.TID 0000.0001) %MON ad_extforcing_adfu_min       =   0.0000000000000E+00
(PID.TID 0000.0001) %MON ad_extforcing_adfu_mean      =   0.0000000000000E+00
(PID.TID 0000.0001) %MON ad_extforcing_adfu_sd        =   0.0000000000000E+00
(PID.TID 0000.0001) %MON ad_extforcing_adfu_del2      =   0.0000000000000E+00
(PID.TID 0000.0001) %MON ad_extforcing_adfv_max       =   0.0000000000000E+00
(PID.TID 0000.0001) %MON ad_extforcing_adfv_min       =   0.0000000000000E+00
(PID.TID 0000.0001) %MON ad_extforcing_adfv_mean      =   0.0000000000000E+00
(PID.TID 0000.0001) %MON ad_extforcing_adfv_sd        =   0.0000000000000E+00
(PID.TID 0000.0001) %MON ad_extforcing_adfv_del2      =   0.0000000000000E+00
(PID.TID 0000.0001) %MON ad_advcfl_aduvel_max         =   1.0156707294483E-03
(PID.TID 0000.0001) %MON ad_advcfl_advvel_max         =   4.2292828620163E-03
(PID.TID 0000.0001) %MON ad_advcfl_adwvel_max         =   1.2466856473875E+02
(PID.TID 0000.0001) %MON ad_advcfl_adW_hf_max         =   1.6244691768989E+02
(PID.TID 0000.0001) // =======================================================
(PID.TID 0000.0001) // End MONITOR dynamic field statistics
(PID.TID 0000.0001) // =======================================================
 cg2d: Sum(rhs),rhsMax =   4.18241186736485E-13  3.24510487486510E-08
time,SST,SSS,fu,fv,Q,E-P,i0,i1,a,b =   4.4064E+06 -4.6227E-01  3.4453E+01 -1.6988E-02 -1.4224E-02  2.3546E+02  0.0000E+00     2     3  2.0000E-01  8.0000E-01
time,fu0,fu1,fu =   4.4064E+06 -1.4435E-02 -2.7199E-02 -1.6988E-02  2.000000000000000E-01  8.000000000000000E-01
 cg2d: Sum(rhs),rhsMax =   2.77632777878623E-12  9.89195713846401E+00
time,SST,SSS,fu,fv,Q,E-P,i0,i1,a,b =   4.4496E+06 -4.5647E-01  3.4455E+01 -1.7200E-02 -1.3940E-02  2.3505E+02  0.0000E+00     2     3  2.1667E-01  7.8333E-01
time,fu0,fu1,fu =   4.4496E+06 -1.4435E-02 -2.7199E-02 -1.7200E-02  2.166666666666667E-01  7.833333333333333E-01
 cg2d: Sum(rhs),rhsMax =   2.73103067938152E-12  9.67292361771451E+00
time,SST,SSS,fu,fv,Q,E-P,i0,i1,a,b =   4.4928E+06 -4.5067E-01  3.4458E+01 -1.7413E-02 -1.3655E-02  2.3463E+02  0.0000E+00     2     3  2.3333E-01  7.6667E-01
time,fu0,fu1,fu =   4.4928E+06 -1.4435E-02 -2.7199E-02 -1.7413E-02  2.333333333333333E-01  7.666666666666666E-01
 cg2d: Sum(rhs),rhsMax =   2.65083788253406E-12  9.41296214456248E+00
(PID.TID 0000.0001) // =======================================================
(PID.TID 0000.0001) // Begin MONITOR dynamic field statistics
(PID.TID 0000.0001) // =======================================================
(PID.TID 0000.0001) %MON ad_time_tsnumber             =                   105
(PID.TID 0000.0001) %MON ad_time_secondsf             =   4.5360000000000E+06
(PID.TID 0000.0001) %MON ad_dynstat_adeta_max         =   2.9707143168059E-03
(PID.TID 0000.0001) %MON ad_dynstat_adeta_min         =  -4.6058271985599E-03
(PID.TID 0000.0001) %MON ad_dynstat_adeta_mean        =   8.0693317917766E-06
(PID.TID 0000.0001) %MON ad_dynstat_adeta_sd          =   3.3839039500391E-04
(PID.TID 0000.0001) %MON ad_dynstat_adeta_del2        =   2.6571344049673E-05
(PID.TID 0000.0001) %MON ad_dynstat_aduvel_max        =   9.3804237476427E-03
(PID.TID 0000.0001) %MON ad_dynstat_aduvel_min        =  -1.8485257785003E-03
(PID.TID 0000.0001) %MON ad_dynstat_aduvel_mean       =   2.0990107496982E-05
(PID.TID 0000.0001) %MON ad_dynstat_aduvel_sd         =   2.1978421408195E-04
(PID.TID 0000.0001) %MON ad_dynstat_aduvel_del2       =   1.0767900735065E-05
(PID.TID 0000.0001) %MON ad_dynstat_advvel_max        =   4.3916120014129E-02
(PID.TID 0000.0001) %MON ad_dynstat_advvel_min        =  -2.1511759502589E-02
(PID.TID 0000.0001) %MON ad_dynstat_advvel_mean       =  -4.0033131038780E-05
(PID.TID 0000.0001) %MON ad_dynstat_advvel_sd         =   1.8587417638440E-03
(PID.TID 0000.0001) %MON ad_dynstat_advvel_del2       =   1.4371906394921E-04
(PID.TID 0000.0001) %MON ad_dynstat_adwvel_max        =   6.8595062074744E-01
(PID.TID 0000.0001) %MON ad_dynstat_adwvel_min        =  -6.7288525719336E-01
(PID.TID 0000.0001) %MON ad_dynstat_adwvel_mean       =   7.4706884713137E-05
(PID.TID 0000.0001) %MON ad_dynstat_adwvel_sd         =   2.7764281386042E-02
(PID.TID 0000.0001) %MON ad_dynstat_adwvel_del2       =   2.2629882270379E-03
(PID.TID 0000.0001) %MON ad_dynstat_adtheta_max       =   1.7081422413835E-03
(PID.TID 0000.0001) %MON ad_dynstat_adtheta_min       =  -1.9442387048753E-03
(PID.TID 0000.0001) %MON ad_dynstat_adtheta_mean      =   1.8375015694247E-07
(PID.TID 0000.0001) %MON ad_dynstat_adtheta_sd        =   1.5574369560759E-04
(PID.TID 0000.0001) %MON ad_dynstat_adtheta_del2      =   1.3846351169433E-05
(PID.TID 0000.0001) %MON ad_dynstat_adsalt_max        =   9.9817174003004E-03
(PID.TID 0000.0001) %MON ad_dynstat_adsalt_min        =  -8.1489984717131E-03
(PID.TID 0000.0001) %MON ad_dynstat_adsalt_mean       =  -1.2227245664485E-06
(PID.TID 0000.0001) %MON ad_dynstat_adsalt_sd         =   7.1959123432140E-04
(PID.TID 0000.0001) %MON ad_dynstat_adsalt_del2       =   6.0435113075108E-05
(PID.TID 0000.0001) %MON ad_dynstat_adsst_max         =   4.2340356108946E-05
(PID.TID 0000.0001) %MON ad_dynstat_adsst_min         =  -9.2508298370729E-05
(PID.TID 0000.0001) %MON ad_dynstat_adsst_mean        =  -5.1461489892969E-07
(PID.TID 0000.0001) %MON ad_dynstat_adsst_sd          =   5.5827228539608E-06
(PID.TID 0000.0001) %MON ad_dynstat_adsst_del2        =   5.3132965382760E-07
(PID.TID 0000.0001) %MON ad_dynstat_adsss_max         =   2.6794705859906E-04
(PID.TID 0000.0001) %MON ad_dynstat_adsss_min         =  -1.4060744354693E-04
(PID.TID 0000.0001) %MON ad_dynstat_adsss_mean        =   9.4477697947930E-07
(PID.TID 0000.0001) %MON ad_dynstat_adsss_sd          =   1.6085473632444E-05
(PID.TID 0000.0001) %MON ad_dynstat_adsss_del2        =   1.5575491431185E-06
(PID.TID 0000.0001) %MON ad_extforcing_adqnet_max     =   0.0000000000000E+00
(PID.TID 0000.0001) %MON ad_extforcing_adqnet_min     =   0.0000000000000E+00
(PID.TID 0000.0001) %MON ad_extforcing_adqnet_mean    =   0.0000000000000E+00
(PID.TID 0000.0001) %MON ad_extforcing_adqnet_sd      =   0.0000000000000E+00
(PID.TID 0000.0001) %MON ad_extforcing_adqnet_del2    =   0.0000000000000E+00
(PID.TID 0000.0001) %MON ad_extforcing_adempmr_max    =   6.7072177816511E+01
(PID.TID 0000.0001) %MON ad_extforcing_adempmr_min    =  -3.8012436573002E+01
(PID.TID 0000.0001) %MON ad_extforcing_adempmr_mean   =   1.4220302450976E-01
(PID.TID 0000.0001) %MON ad_extforcing_adempmr_sd     =   4.6026437569843E+00
(PID.TID 0000.0001) %MON ad_extforcing_adempmr_del2   =   4.6682045013291E-01
(PID.TID 0000.0001) %MON ad_extforcing_adfu_max       =   0.0000000000000E+00
(PID.TID 0000.0001) %MON ad_extforcing_adfu_min       =   0.0000000000000E+00
(PID.TID 0000.0001) %MON ad_extforcing_adfu_mean      =   0.0000000000000E+00
(PID.TID 0000.0001) %MON ad_extforcing_adfu_sd        =   0.0000000000000E+00
(PID.TID 0000.0001) %MON ad_extforcing_adfu_del2      =   0.0000000000000E+00
(PID.TID 0000.0001) %MON ad_extforcing_adfv_max       =   0.0000000000000E+00
(PID.TID 0000.0001) %MON ad_extforcing_adfv_min       =   0.0000000000000E+00
(PID.TID 0000.0001) %MON ad_extforcing_adfv_mean      =   0.0000000000000E+00
(PID.TID 0000.0001) %MON ad_extforcing_adfv_sd        =   0.0000000000000E+00
(PID.TID 0000.0001) %MON ad_extforcing_adfv_del2      =   0.0000000000000E+00
(PID.TID 0000.0001) %MON ad_advcfl_aduvel_max         =   1.0522011723290E-03
(PID.TID 0000.0001) %MON ad_advcfl_advvel_max         =   4.2660988944295E-03
(PID.TID 0000.0001) %MON ad_advcfl_adwvel_max         =   1.3782821775018E+02
(PID.TID 0000.0001) %MON ad_advcfl_adW_hf_max         =   1.7959434434115E+02
(PID.TID 0000.0001) // =======================================================
(PID.TID 0000.0001) // End MONITOR dynamic field statistics
(PID.TID 0000.0001) // =======================================================
 cg2d: Sum(rhs),rhsMax =   3.50922948909500E-13  3.50696979675900E-08
(PID.TID 0000.0001) // =======================================================
(PID.TID 0000.0001) // Begin MONITOR dynamic field statistics
(PID.TID 0000.0001) // =======================================================
(PID.TID 0000.0001) %MON ad_time_tsnumber             =                   104
(PID.TID 0000.0001) %MON ad_time_secondsf             =   4.4928000000000E+06
(PID.TID 0000.0001) %MON ad_dynstat_adeta_max         =   3.1812117873214E-03
(PID.TID 0000.0001) %MON ad_dynstat_adeta_min         =  -4.9504482291962E-03
(PID.TID 0000.0001) %MON ad_dynstat_adeta_mean        =   8.6835770872058E-06
(PID.TID 0000.0001) %MON ad_dynstat_adeta_sd          =   3.5815719296588E-04
(PID.TID 0000.0001) %MON ad_dynstat_adeta_del2        =   2.8646701215061E-05
(PID.TID 0000.0001) %MON ad_dynstat_aduvel_max        =   9.6385710494274E-03
(PID.TID 0000.0001) %MON ad_dynstat_aduvel_min        =  -2.0159708993997E-03
(PID.TID 0000.0001) %MON ad_dynstat_aduvel_mean       =   2.2200858752556E-05
(PID.TID 0000.0001) %MON ad_dynstat_aduvel_sd         =   2.3629149738996E-04
(PID.TID 0000.0001) %MON ad_dynstat_aduvel_del2       =   1.1316647948295E-05
(PID.TID 0000.0001) %MON ad_dynstat_advvel_max        =   4.3947208511093E-02
(PID.TID 0000.0001) %MON ad_dynstat_advvel_min        =  -2.1667288154638E-02
(PID.TID 0000.0001) %MON ad_dynstat_advvel_mean       =  -4.4961494216439E-05
(PID.TID 0000.0001) %MON ad_dynstat_advvel_sd         =   1.8637625850020E-03
(PID.TID 0000.0001) %MON ad_dynstat_advvel_del2       =   1.4202555736733E-04
(PID.TID 0000.0001) %MON ad_dynstat_adwvel_max        =   7.5067719453675E-01
(PID.TID 0000.0001) %MON ad_dynstat_adwvel_min        =  -7.3422346718027E-01
(PID.TID 0000.0001) %MON ad_dynstat_adwvel_mean       =   7.7816017248007E-05
(PID.TID 0000.0001) %MON ad_dynstat_adwvel_sd         =   3.0362519611203E-02
(PID.TID 0000.0001) %MON ad_dynstat_adwvel_del2       =   2.4613258337014E-03
(PID.TID 0000.0001) %MON ad_dynstat_adtheta_max       =   1.8922940863967E-03
(PID.TID 0000.0001) %MON ad_dynstat_adtheta_min       =  -2.1306252705498E-03
(PID.TID 0000.0001) %MON ad_dynstat_adtheta_mean      =   2.1733294295151E-07
(PID.TID 0000.0001) %MON ad_dynstat_adtheta_sd        =   1.6877597589105E-04
(PID.TID 0000.0001) %MON ad_dynstat_adtheta_del2      =   1.4936210917990E-05
(PID.TID 0000.0001) %MON ad_dynstat_adsalt_max        =   1.0938565948077E-02
(PID.TID 0000.0001) %MON ad_dynstat_adsalt_min        =  -9.0268919890705E-03
(PID.TID 0000.0001) %MON ad_dynstat_adsalt_mean       =  -1.4129654122545E-06
(PID.TID 0000.0001) %MON ad_dynstat_adsalt_sd         =   7.7937389943640E-04
(PID.TID 0000.0001) %MON ad_dynstat_adsalt_del2       =   6.5144911542619E-05
(PID.TID 0000.0001) %MON ad_dynstat_adsst_max         =   4.8752955149763E-05
(PID.TID 0000.0001) %MON ad_dynstat_adsst_min         =  -1.0206510505259E-04
(PID.TID 0000.0001) %MON ad_dynstat_adsst_mean        =  -5.5137189894763E-07
(PID.TID 0000.0001) %MON ad_dynstat_adsst_sd          =   6.1301971936318E-06
(PID.TID 0000.0001) %MON ad_dynstat_adsst_del2        =   5.8931368940836E-07
(PID.TID 0000.0001) %MON ad_dynstat_adsss_max         =   2.9646162765091E-04
(PID.TID 0000.0001) %MON ad_dynstat_adsss_min         =  -1.6084369153155E-04
(PID.TID 0000.0001) %MON ad_dynstat_adsss_mean        =   1.0236051607081E-06
(PID.TID 0000.0001) %MON ad_dynstat_adsss_sd          =   1.7697762866002E-05
(PID.TID 0000.0001) %MON ad_dynstat_adsss_del2        =   1.7265999733024E-06
(PID.TID 0000.0001) %MON ad_extforcing_adqnet_max     =   0.0000000000000E+00
(PID.TID 0000.0001) %MON ad_extforcing_adqnet_min     =   0.0000000000000E+00
(PID.TID 0000.0001) %MON ad_extforcing_adqnet_mean    =   0.0000000000000E+00
(PID.TID 0000.0001) %MON ad_extforcing_adqnet_sd      =   0.0000000000000E+00
(PID.TID 0000.0001) %MON ad_extforcing_adqnet_del2    =   0.0000000000000E+00
(PID.TID 0000.0001) %MON ad_extforcing_adempmr_max    =   7.8973718950827E+01
(PID.TID 0000.0001) %MON ad_extforcing_adempmr_min    =  -4.4858058184265E+01
(PID.TID 0000.0001) %MON ad_extforcing_adempmr_mean   =   1.6563753511749E-01
(PID.TID 0000.0001) %MON ad_extforcing_adempmr_sd     =   5.4370009662352E+00
(PID.TID 0000.0001) %MON ad_extforcing_adempmr_del2   =   5.4955349152368E-01
(PID.TID 0000.0001) %MON ad_extforcing_adfu_max       =   0.0000000000000E+00
(PID.TID 0000.0001) %MON ad_extforcing_adfu_min       =   0.0000000000000E+00
(PID.TID 0000.0001) %MON ad_extforcing_adfu_mean      =   0.0000000000000E+00
(PID.TID 0000.0001) %MON ad_extforcing_adfu_sd        =   0.0000000000000E+00
(PID.TID 0000.0001) %MON ad_extforcing_adfu_del2      =   0.0000000000000E+00
(PID.TID 0000.0001) %MON ad_extforcing_adfv_max       =   0.0000000000000E+00
(PID.TID 0000.0001) %MON ad_extforcing_adfv_min       =   0.0000000000000E+00
(PID.TID 0000.0001) %MON ad_extforcing_adfv_mean      =   0.0000000000000E+00
(PID.TID 0000.0001) %MON ad_extforcing_adfv_sd        =   0.0000000000000E+00
(PID.TID 0000.0001) %MON ad_extforcing_adfv_del2      =   0.0000000000000E+00
(PID.TID 0000.0001) %MON ad_advcfl_aduvel_max         =   1.0811575287665E-03
(PID.TID 0000.0001) %MON ad_advcfl_advvel_max         =   4.2691188926097E-03
(PID.TID 0000.0001) %MON ad_advcfl_adwvel_max         =   1.5083374327436E+02
(PID.TID 0000.0001) %MON ad_advcfl_adW_hf_max         =   1.9749330945849E+02
(PID.TID 0000.0001) // =======================================================
(PID.TID 0000.0001) // End MONITOR dynamic field statistics
(PID.TID 0000.0001) // =======================================================
 cg2d: Sum(rhs),rhsMax =   2.96025123223921E-13  3.75795943486213E-08
(PID.TID 0000.0001) // =======================================================
(PID.TID 0000.0001) // Begin MONITOR dynamic field statistics
(PID.TID 0000.0001) // =======================================================
(PID.TID 0000.0001) %MON ad_time_tsnumber             =                   103
(PID.TID 0000.0001) %MON ad_time_secondsf             =   4.4496000000000E+06
(PID.TID 0000.0001) %MON ad_dynstat_adeta_max         =   3.3903289318964E-03
(PID.TID 0000.0001) %MON ad_dynstat_adeta_min         =  -5.2878975222114E-03
(PID.TID 0000.0001) %MON ad_dynstat_adeta_mean        =   9.2713784913985E-06
(PID.TID 0000.0001) %MON ad_dynstat_adeta_sd          =   3.7699126975287E-04
(PID.TID 0000.0001) %MON ad_dynstat_adeta_del2        =   3.0596182236188E-05
(PID.TID 0000.0001) %MON ad_dynstat_aduvel_max        =   9.8230744367948E-03
(PID.TID 0000.0001) %MON ad_dynstat_aduvel_min        =  -2.1550824107096E-03
(PID.TID 0000.0001) %MON ad_dynstat_aduvel_mean       =   2.3235030979963E-05
(PID.TID 0000.0001) %MON ad_dynstat_aduvel_sd         =   2.5343287787637E-04
(PID.TID 0000.0001) %MON ad_dynstat_aduvel_del2       =   1.1876326815285E-05
(PID.TID 0000.0001) %MON ad_dynstat_advvel_max        =   4.3626122942416E-02
(PID.TID 0000.0001) %MON ad_dynstat_advvel_min        =  -2.1606944366314E-02
(PID.TID 0000.0001) %MON ad_dynstat_advvel_mean       =  -4.9118860356075E-05
(PID.TID 0000.0001) %MON ad_dynstat_advvel_sd         =   1.8545369524102E-03
(PID.TID 0000.0001) %MON ad_dynstat_advvel_del2       =   1.3898108640057E-04
(PID.TID 0000.0001) %MON ad_dynstat_adwvel_max        =   8.1390453859365E-01
(PID.TID 0000.0001) %MON ad_dynstat_adwvel_min        =  -7.9323598065822E-01
(PID.TID 0000.0001) %MON ad_dynstat_adwvel_mean       =   8.0395168649400E-05
(PID.TID 0000.0001) %MON ad_dynstat_adwvel_sd         =   3.2887980175173E-02
(PID.TID 0000.0001) %MON ad_dynstat_adwvel_del2       =   2.6510386914976E-03
(PID.TID 0000.0001) %MON ad_dynstat_adtheta_max       =   2.0780021373578E-03
(PID.TID 0000.0001) %MON ad_dynstat_adtheta_min       =  -2.3139466025954E-03
(PID.TID 0000.0001) %MON ad_dynstat_adtheta_mean      =   2.5281947849041E-07
(PID.TID 0000.0001) %MON ad_dynstat_adtheta_sd        =   1.8119177671789E-04
(PID.TID 0000.0001) %MON ad_dynstat_adtheta_del2      =   1.5954331787850E-05
(PID.TID 0000.0001) %MON ad_dynstat_adsalt_max        =   1.1879672419607E-02
(PID.TID 0000.0001) %MON ad_dynstat_adsalt_min        =  -9.9120808390242E-03
(PID.TID 0000.0001) %MON ad_dynstat_adsalt_mean       =  -1.6127082092805E-06
(PID.TID 0000.0001) %MON ad_dynstat_adsalt_sd         =   8.3620980531710E-04
(PID.TID 0000.0001) %MON ad_dynstat_adsalt_del2       =   6.9531388454908E-05
(PID.TID 0000.0001) %MON ad_dynstat_adsst_max         =   5.5359546458566E-05
(PID.TID 0000.0001) %MON ad_dynstat_adsst_min         =  -1.1148179662068E-04
(PID.TID 0000.0001) %MON ad_dynstat_adsst_mean        =  -5.8032861320669E-07
(PID.TID 0000.0001) %MON ad_dynstat_adsst_sd          =   6.6882490121093E-06
(PID.TID 0000.0001) %MON ad_dynstat_adsst_del2        =   6.4634887722978E-07
(PID.TID 0000.0001) %MON ad_dynstat_adsss_max         =   3.2458523724644E-04
(PID.TID 0000.0001) %MON ad_dynstat_adsss_min         =  -1.8169295055639E-04
(PID.TID 0000.0001) %MON ad_dynstat_adsss_mean        =   1.0831189830075E-06
(PID.TID 0000.0001) %MON ad_dynstat_adsss_sd          =   1.9355650922565E-05
(PID.TID 0000.0001) %MON ad_dynstat_adsss_del2        =   1.8954388763577E-06
(PID.TID 0000.0001) %MON ad_extforcing_adqnet_max     =   0.0000000000000E+00
(PID.TID 0000.0001) %MON ad_extforcing_adqnet_min     =   0.0000000000000E+00
(PID.TID 0000.0001) %MON ad_extforcing_adqnet_mean    =   0.0000000000000E+00
(PID.TID 0000.0001) %MON ad_extforcing_adqnet_sd      =   0.0000000000000E+00
(PID.TID 0000.0001) %MON ad_extforcing_adqnet_del2    =   0.0000000000000E+00
(PID.TID 0000.0001) %MON ad_extforcing_adempmr_max    =   9.1916162327045E+01
(PID.TID 0000.0001) %MON ad_extforcing_adempmr_min    =  -5.2312809845449E+01
(PID.TID 0000.0001) %MON ad_extforcing_adempmr_mean   =   1.9087044907965E-01
(PID.TID 0000.0001) %MON ad_extforcing_adempmr_sd     =   6.3465516549778E+00
(PID.TID 0000.0001) %MON ad_extforcing_adempmr_del2   =   6.3946484703635E-01
(PID.TID 0000.0001) %MON ad_extforcing_adfu_max       =   0.0000000000000E+00
(PID.TID 0000.0001) %MON ad_extforcing_adfu_min       =   0.0000000000000E+00
(PID.TID 0000.0001) %MON ad_extforcing_adfu_mean      =   0.0000000000000E+00
(PID.TID 0000.0001) %MON ad_extforcing_adfu_sd        =   0.0000000000000E+00
(PID.TID 0000.0001) %MON ad_extforcing_adfu_del2      =   0.0000000000000E+00
(PID.TID 0000.0001) %MON ad_extforcing_adfv_max       =   0.0000000000000E+00
(PID.TID 0000.0001) %MON ad_extforcing_adfv_min       =   0.0000000000000E+00
(PID.TID 0000.0001) %MON ad_extforcing_adfv_mean      =   0.0000000000000E+00
(PID.TID 0000.0001) %MON ad_extforcing_adfv_sd        =   0.0000000000000E+00
(PID.TID 0000.0001) %MON ad_extforcing_adfv_del2      =   0.0000000000000E+00
(PID.TID 0000.0001) %MON ad_advcfl_aduvel_max         =   1.1018532548562E-03
(PID.TID 0000.0001) %MON ad_advcfl_advvel_max         =   4.2379280044094E-03
(PID.TID 0000.0001) %MON ad_advcfl_adwvel_max         =   1.6353802821975E+02
(PID.TID 0000.0001) %MON ad_advcfl_adW_hf_max         =   2.2018559449471E+02
(PID.TID 0000.0001) // =======================================================
(PID.TID 0000.0001) // End MONITOR dynamic field statistics
(PID.TID 0000.0001) // =======================================================
 cg2d: Sum(rhs),rhsMax =   2.42317801498674E-13  3.99464954185785E-08
time,SST,SSS,fu,fv,Q,E-P,i0,i1,a,b =   4.2768E+06 -4.7966E-01  3.4445E+01 -1.6349E-02 -1.5077E-02  2.3672E+02  0.0000E+00     2     3  1.5000E-01  8.5000E-01
time,fu0,fu1,fu =   4.2768E+06 -1.4435E-02 -2.7199E-02 -1.6349E-02  1.500000000000000E-01  8.500000000000000E-01
 cg2d: Sum(rhs),rhsMax =   2.57759785737832E-12  1.02275375580449E+01
time,SST,SSS,fu,fv,Q,E-P,i0,i1,a,b =   4.3200E+06 -4.7386E-01  3.4447E+01 -1.6562E-02 -1.4793E-02  2.3630E+02  0.0000E+00     2     3  1.6667E-01  8.3333E-01
time,fu0,fu1,fu =   4.3200E+06 -1.4435E-02 -2.7199E-02 -1.6562E-02  1.666666666666667E-01  8.333333333333334E-01
 cg2d: Sum(rhs),rhsMax =   2.46815068383199E-12  1.01758680259234E+01
time,SST,SSS,fu,fv,Q,E-P,i0,i1,a,b =   4.3632E+06 -4.6807E-01  3.4450E+01 -1.6775E-02 -1.4508E-02  2.3588E+02  0.0000E+00     2     3  1.8333E-01  8.1667E-01
time,fu0,fu1,fu =   4.3632E+06 -1.4435E-02 -2.7199E-02 -1.6775E-02  1.833333333333333E-01  8.166666666666667E-01
 cg2d: Sum(rhs),rhsMax =   2.48677467507008E-12  1.00619947917649E+01
(PID.TID 0000.0001) // =======================================================
(PID.TID 0000.0001) // Begin MONITOR dynamic field statistics
(PID.TID 0000.0001) // =======================================================
(PID.TID 0000.0001) %MON ad_time_tsnumber             =                   102
(PID.TID 0000.0001) %MON ad_time_secondsf             =   4.4064000000000E+06
(PID.TID 0000.0001) %MON ad_dynstat_adeta_max         =   3.5956485890335E-03
(PID.TID 0000.0001) %MON ad_dynstat_adeta_min         =  -5.6170384053002E-03
(PID.TID 0000.0001) %MON ad_dynstat_adeta_mean        =   9.8296028669640E-06
(PID.TID 0000.0001) %MON ad_dynstat_adeta_sd          =   3.9480930283073E-04
(PID.TID 0000.0001) %MON ad_dynstat_adeta_del2        =   3.2465230012149E-05
(PID.TID 0000.0001) %MON ad_dynstat_aduvel_max        =   9.9315627522626E-03
(PID.TID 0000.0001) %MON ad_dynstat_aduvel_min        =  -2.2718862644715E-03
(PID.TID 0000.0001) %MON ad_dynstat_aduvel_mean       =   2.4086865700186E-05
(PID.TID 0000.0001) %MON ad_dynstat_aduvel_sd         =   2.7084251215840E-04
(PID.TID 0000.0001) %MON ad_dynstat_aduvel_del2       =   1.2503419896389E-05
(PID.TID 0000.0001) %MON ad_dynstat_advvel_max        =   4.2962223731338E-02
(PID.TID 0000.0001) %MON ad_dynstat_advvel_min        =  -2.1332967591228E-02
(PID.TID 0000.0001) %MON ad_dynstat_advvel_mean       =  -5.2407138174039E-05
(PID.TID 0000.0001) %MON ad_dynstat_advvel_sd         =   1.8319491633004E-03
(PID.TID 0000.0001) %MON ad_dynstat_advvel_del2       =   1.3471887682714E-04
(PID.TID 0000.0001) %MON ad_dynstat_adwvel_max        =   8.7488539152887E-01
(PID.TID 0000.0001) %MON ad_dynstat_adwvel_min        =  -8.4935648636791E-01
(PID.TID 0000.0001) %MON ad_dynstat_adwvel_mean       =   8.2716522966502E-05
(PID.TID 0000.0001) %MON ad_dynstat_adwvel_sd         =   3.5314413698584E-02
(PID.TID 0000.0001) %MON ad_dynstat_adwvel_del2       =   2.8303269645252E-03
(PID.TID 0000.0001) %MON ad_dynstat_adtheta_max       =   2.2638849908058E-03
(PID.TID 0000.0001) %MON ad_dynstat_adtheta_min       =  -2.4925723240854E-03
(PID.TID 0000.0001) %MON ad_dynstat_adtheta_mean      =   2.8984572021413E-07
(PID.TID 0000.0001) %MON ad_dynstat_adtheta_sd        =   1.9285686472080E-04
(PID.TID 0000.0001) %MON ad_dynstat_adtheta_del2      =   1.6888829544696E-05
(PID.TID 0000.0001) %MON ad_dynstat_adsalt_max        =   1.2796671988370E-02
(PID.TID 0000.0001) %MON ad_dynstat_adsalt_min        =  -1.0797981680894E-02
(PID.TID 0000.0001) %MON ad_dynstat_adsalt_mean       =  -1.8201769501428E-06
(PID.TID 0000.0001) %MON ad_dynstat_adsalt_sd         =   8.8947617979665E-04
(PID.TID 0000.0001) %MON ad_dynstat_adsalt_del2       =   7.3540915081893E-05
(PID.TID 0000.0001) %MON ad_dynstat_adsst_max         =   6.2131314531657E-05
(PID.TID 0000.0001) %MON ad_dynstat_adsst_min         =  -1.2068444672390E-04
(PID.TID 0000.0001) %MON ad_dynstat_adsst_mean        =  -5.8994920900856E-07
(PID.TID 0000.0001) %MON ad_dynstat_adsst_sd          =   7.3223327748809E-06
(PID.TID 0000.0001) %MON ad_dynstat_adsst_del2        =   7.1878734783754E-07
(PID.TID 0000.0001) %MON ad_dynstat_adsss_max         =   3.5209189975067E-04
(PID.TID 0000.0001) %MON ad_dynstat_adsss_min         =  -2.0307214733720E-04
(PID.TID 0000.0001) %MON ad_dynstat_adsss_mean        =   1.0879031092328E-06
(PID.TID 0000.0001) %MON ad_dynstat_adsss_sd          =   2.1260214816886E-05
(PID.TID 0000.0001) %MON ad_dynstat_adsss_del2        =   2.1095279928341E-06
(PID.TID 0000.0001) %MON ad_extforcing_adqnet_max     =   0.0000000000000E+00
(PID.TID 0000.0001) %MON ad_extforcing_adqnet_min     =   0.0000000000000E+00
(PID.TID 0000.0001) %MON ad_extforcing_adqnet_mean    =   0.0000000000000E+00
(PID.TID 0000.0001) %MON ad_extforcing_adqnet_sd      =   0.0000000000000E+00
(PID.TID 0000.0001) %MON ad_extforcing_adqnet_del2    =   0.0000000000000E+00
(PID.TID 0000.0001) %MON ad_extforcing_adempmr_max    =   1.0587514689291E+02
(PID.TID 0000.0001) %MON ad_extforcing_adempmr_min    =  -6.0365762729821E+01
(PID.TID 0000.0001) %MON ad_extforcing_adempmr_mean   =   2.1386637181573E-01
(PID.TID 0000.0001) %MON ad_extforcing_adempmr_sd     =   7.3438179867848E+00
(PID.TID 0000.0001) %MON ad_extforcing_adempmr_del2   =   7.3976084199691E-01
(PID.TID 0000.0001) %MON ad_extforcing_adfu_max       =   0.0000000000000E+00
(PID.TID 0000.0001) %MON ad_extforcing_adfu_min       =   0.0000000000000E+00
(PID.TID 0000.0001) %MON ad_extforcing_adfu_mean      =   0.0000000000000E+00
(PID.TID 0000.0001) %MON ad_extforcing_adfu_sd        =   0.0000000000000E+00
(PID.TID 0000.0001) %MON ad_extforcing_adfu_del2      =   0.0000000000000E+00
(PID.TID 0000.0001) %MON ad_extforcing_adfv_max       =   0.0000000000000E+00
(PID.TID 0000.0001) %MON ad_extforcing_adfv_min       =   0.0000000000000E+00
(PID.TID 0000.0001) %MON ad_extforcing_adfv_mean      =   0.0000000000000E+00
(PID.TID 0000.0001) %MON ad_extforcing_adfv_sd        =   0.0000000000000E+00
(PID.TID 0000.0001) %MON ad_extforcing_adfv_del2      =   0.0000000000000E+00
(PID.TID 0000.0001) %MON ad_advcfl_aduvel_max         =   1.1140223781058E-03
(PID.TID 0000.0001) %MON ad_advcfl_advvel_max         =   4.1734355198848E-03
(PID.TID 0000.0001) %MON ad_advcfl_adwvel_max         =   1.7579092518162E+02
(PID.TID 0000.0001) %MON ad_advcfl_adW_hf_max         =   2.4339283555477E+02
(PID.TID 0000.0001) // =======================================================
(PID.TID 0000.0001) // End MONITOR dynamic field statistics
(PID.TID 0000.0001) // =======================================================
 cg2d: Sum(rhs),rhsMax =   1.65069987436957E-13  4.21318712750620E-08
(PID.TID 0000.0001) // =======================================================
(PID.TID 0000.0001) // Begin MONITOR dynamic field statistics
(PID.TID 0000.0001) // =======================================================
(PID.TID 0000.0001) %MON ad_time_tsnumber             =                   101
(PID.TID 0000.0001) %MON ad_time_secondsf             =   4.3632000000000E+06
(PID.TID 0000.0001) %MON ad_dynstat_adeta_max         =   3.7954020144560E-03
(PID.TID 0000.0001) %MON ad_dynstat_adeta_min         =  -5.9354595468169E-03
(PID.TID 0000.0001) %MON ad_dynstat_adeta_mean        =   1.0355432763365E-05
(PID.TID 0000.0001) %MON ad_dynstat_adeta_sd          =   4.1157270078607E-04
(PID.TID 0000.0001) %MON ad_dynstat_adeta_del2        =   3.4211450000976E-05
(PID.TID 0000.0001) %MON ad_dynstat_aduvel_max        =   9.9634827009978E-03
(PID.TID 0000.0001) %MON ad_dynstat_aduvel_min        =  -2.3722546196977E-03
(PID.TID 0000.0001) %MON ad_dynstat_aduvel_mean       =   2.4730676934908E-05
(PID.TID 0000.0001) %MON ad_dynstat_aduvel_sd         =   2.8810425767370E-04
(PID.TID 0000.0001) %MON ad_dynstat_aduvel_del2       =   1.3217250681789E-05
(PID.TID 0000.0001) %MON ad_dynstat_advvel_max        =   4.1967799365253E-02
(PID.TID 0000.0001) %MON ad_dynstat_advvel_min        =  -2.0857878521386E-02
(PID.TID 0000.0001) %MON ad_dynstat_advvel_mean       =  -5.4767561813068E-05
(PID.TID 0000.0001) %MON ad_dynstat_advvel_sd         =   1.7972195783914E-03
(PID.TID 0000.0001) %MON ad_dynstat_advvel_del2       =   1.2937681795604E-04
(PID.TID 0000.0001) %MON ad_dynstat_adwvel_max        =   9.3289945599535E-01
(PID.TID 0000.0001) %MON ad_dynstat_adwvel_min        =  -9.0203382608477E-01
(PID.TID 0000.0001) %MON ad_dynstat_adwvel_mean       =   8.4406566234348E-05
(PID.TID 0000.0001) %MON ad_dynstat_adwvel_sd         =   3.7618737671395E-02
(PID.TID 0000.0001) %MON ad_dynstat_adwvel_del2       =   2.9964890766072E-03
(PID.TID 0000.0001) %MON ad_dynstat_adtheta_max       =   2.4586872939808E-03
(PID.TID 0000.0001) %MON ad_dynstat_adtheta_min       =  -2.6650244785842E-03
(PID.TID 0000.0001) %MON ad_dynstat_adtheta_mean      =   3.2842547147251E-07
(PID.TID 0000.0001) %MON ad_dynstat_adtheta_sd        =   2.0365393959443E-04
(PID.TID 0000.0001) %MON ad_dynstat_adtheta_del2      =   1.7728695653781E-05
(PID.TID 0000.0001) %MON ad_dynstat_adsalt_max        =   1.3681983955785E-02
(PID.TID 0000.0001) %MON ad_dynstat_adsalt_min        =  -1.1678005442186E-02
(PID.TID 0000.0001) %MON ad_dynstat_adsalt_mean       =  -2.0345847780634E-06
(PID.TID 0000.0001) %MON ad_dynstat_adsalt_sd         =   9.3862845537688E-04
(PID.TID 0000.0001) %MON ad_dynstat_adsalt_del2       =   7.7122662930075E-05
(PID.TID 0000.0001) %MON ad_dynstat_adsst_max         =   6.9032908619432E-05
(PID.TID 0000.0001) %MON ad_dynstat_adsst_min         =  -1.2960300553396E-04
(PID.TID 0000.0001) %MON ad_dynstat_adsst_mean        =  -6.3594170489286E-07
(PID.TID 0000.0001) %MON ad_dynstat_adsst_sd          =   7.8703668349472E-06
(PID.TID 0000.0001) %MON ad_dynstat_adsst_del2        =   7.7211992308390E-07
(PID.TID 0000.0001) %MON ad_dynstat_adsss_max         =   3.7876724653841E-04
(PID.TID 0000.0001) %MON ad_dynstat_adsss_min         =  -2.2487913409158E-04
(PID.TID 0000.0001) %MON ad_dynstat_adsss_mean        =   1.1952551934274E-06
(PID.TID 0000.0001) %MON ad_dynstat_adsss_sd          =   2.2868740405293E-05
(PID.TID 0000.0001) %MON ad_dynstat_adsss_del2        =   2.2668309316785E-06
(PID.TID 0000.0001) %MON ad_extforcing_adqnet_max     =   0.0000000000000E+00
(PID.TID 0000.0001) %MON ad_extforcing_adqnet_min     =   0.0000000000000E+00
(PID.TID 0000.0001) %MON ad_extforcing_adqnet_mean    =   0.0000000000000E+00
(PID.TID 0000.0001) %MON ad_extforcing_adqnet_sd      =   0.0000000000000E+00
(PID.TID 0000.0001) %MON ad_extforcing_adqnet_del2    =   0.0000000000000E+00
(PID.TID 0000.0001) %MON ad_extforcing_adempmr_max    =   1.2081745867492E+02
(PID.TID 0000.0001) %MON ad_extforcing_adempmr_min    =  -7.0509843553900E+01
(PID.TID 0000.0001) %MON ad_extforcing_adempmr_mean   =   2.3983424347449E-01
(PID.TID 0000.0001) %MON ad_extforcing_adempmr_sd     =   8.4094965806026E+00
(PID.TID 0000.0001) %MON ad_extforcing_adempmr_del2   =   8.4577500023895E-01
(PID.TID 0000.0001) %MON ad_extforcing_adfu_max       =   0.0000000000000E+00
(PID.TID 0000.0001) %MON ad_extforcing_adfu_min       =   0.0000000000000E+00
(PID.TID 0000.0001) %MON ad_extforcing_adfu_mean      =   0.0000000000000E+00
(PID.TID 0000.0001) %MON ad_extforcing_adfu_sd        =   0.0000000000000E+00
(PID.TID 0000.0001) %MON ad_extforcing_adfu_del2      =   0.0000000000000E+00
(PID.TID 0000.0001) %MON ad_extforcing_adfv_max       =   0.0000000000000E+00
(PID.TID 0000.0001) %MON ad_extforcing_adfv_min       =   0.0000000000000E+00
(PID.TID 0000.0001) %MON ad_extforcing_adfv_mean      =   0.0000000000000E+00
(PID.TID 0000.0001) %MON ad_extforcing_adfv_sd        =   0.0000000000000E+00
(PID.TID 0000.0001) %MON ad_extforcing_adfv_del2      =   0.0000000000000E+00
(PID.TID 0000.0001) %MON ad_advcfl_aduvel_max         =   1.1176028354907E-03
(PID.TID 0000.0001) %MON ad_advcfl_advvel_max         =   4.0768351670444E-03
(PID.TID 0000.0001) %MON ad_advcfl_adwvel_max         =   1.8910773814640E+02
(PID.TID 0000.0001) %MON ad_advcfl_adW_hf_max         =   2.6697563032433E+02
(PID.TID 0000.0001) // =======================================================
(PID.TID 0000.0001) // End MONITOR dynamic field statistics
(PID.TID 0000.0001) // =======================================================
 cg2d: Sum(rhs),rhsMax =   1.11446205183167E-13  4.41209555392290E-08
 myIter=  100
 ph-mnc in addummy param  T
 ph-mnc in addummy myiter  100
(PID.TID 0000.0001) // =======================================================
(PID.TID 0000.0001) // Begin MONITOR dynamic field statistics
(PID.TID 0000.0001) // =======================================================
(PID.TID 0000.0001) %MON ad_time_tsnumber             =                   100
(PID.TID 0000.0001) %MON ad_time_secondsf             =   4.3200000000000E+06
(PID.TID 0000.0001) %MON ad_dynstat_adeta_max         =   3.9883511829271E-03
(PID.TID 0000.0001) %MON ad_dynstat_adeta_min         =  -6.2396410901543E-03
(PID.TID 0000.0001) %MON ad_dynstat_adeta_mean        =   1.0841779357927E-05
(PID.TID 0000.0001) %MON ad_dynstat_adeta_sd          =   4.2730664089526E-04
(PID.TID 0000.0001) %MON ad_dynstat_adeta_del2        =   3.5825526773550E-05
(PID.TID 0000.0001) %MON ad_dynstat_aduvel_max        =   9.9163887016346E-03
(PID.TID 0000.0001) %MON ad_dynstat_aduvel_min        =  -2.4601486922090E-03
(PID.TID 0000.0001) %MON ad_dynstat_aduvel_mean       =   2.4132102303489E-05
(PID.TID 0000.0001) %MON ad_dynstat_aduvel_sd         =   3.0539254411048E-04
(PID.TID 0000.0001) %MON ad_dynstat_aduvel_del2       =   1.4136571484601E-05
(PID.TID 0000.0001) %MON ad_dynstat_advvel_max        =   4.0657781189232E-02
(PID.TID 0000.0001) %MON ad_dynstat_advvel_min        =  -2.0197524516590E-02
(PID.TID 0000.0001) %MON ad_dynstat_advvel_mean       =  -5.6164832315044E-05
(PID.TID 0000.0001) %MON ad_dynstat_advvel_sd         =   1.7517850345628E-03
(PID.TID 0000.0001) %MON ad_dynstat_advvel_del2       =   1.2312027138257E-04
(PID.TID 0000.0001) %MON ad_dynstat_adwvel_max        =   1.0003217236478E+00
(PID.TID 0000.0001) %MON ad_dynstat_adwvel_min        =  -9.5076050083103E-01
(PID.TID 0000.0001) %MON ad_dynstat_adwvel_mean       =   8.5993893468556E-05
(PID.TID 0000.0001) %MON ad_dynstat_adwvel_sd         =   3.9778431620983E-02
(PID.TID 0000.0001) %MON ad_dynstat_adwvel_del2       =   3.1475577670717E-03
(PID.TID 0000.0001) %MON ad_dynstat_adtheta_max       =   2.6536540335734E-03
(PID.TID 0000.0001) %MON ad_dynstat_adtheta_min       =  -2.8298739599560E-03
(PID.TID 0000.0001) %MON ad_dynstat_adtheta_mean      =   3.6190939866289E-07
(PID.TID 0000.0001) %MON ad_dynstat_adtheta_sd        =   2.1348065218298E-04
(PID.TID 0000.0001) %MON ad_dynstat_adtheta_del2      =   1.8462655696837E-05
(PID.TID 0000.0001) %MON ad_dynstat_adsalt_max        =   1.4528280714090E-02
(PID.TID 0000.0001) %MON ad_dynstat_adsalt_min        =  -1.2545660178282E-02
(PID.TID 0000.0001) %MON ad_dynstat_adsalt_mean       =  -2.2238384468006E-06
(PID.TID 0000.0001) %MON ad_dynstat_adsalt_sd         =   9.8319710346811E-04
(PID.TID 0000.0001) %MON ad_dynstat_adsalt_del2       =   8.0233818114768E-05
(PID.TID 0000.0001) %MON ad_dynstat_adsst_max         =   7.6025661060111E-05
(PID.TID 0000.0001) %MON ad_dynstat_adsst_min         =  -1.3817210572178E-04
(PID.TID 0000.0001) %MON ad_dynstat_adsst_mean        =  -6.4455334057487E-07
(PID.TID 0000.0001) %MON ad_dynstat_adsst_sd          =   8.5002949258627E-06
(PID.TID 0000.0001) %MON ad_dynstat_adsst_del2        =   8.4451145495521E-07
(PID.TID 0000.0001) %MON ad_dynstat_adsss_max         =   4.0441101817363E-04
(PID.TID 0000.0001) %MON ad_dynstat_adsss_min         =  -2.4700225426640E-04
(PID.TID 0000.0001) %MON ad_dynstat_adsss_mean        =   1.2015801806751E-06
(PID.TID 0000.0001) %MON ad_dynstat_adsss_sd          =   2.4751038237731E-05
(PID.TID 0000.0001) %MON ad_dynstat_adsss_del2        =   2.4802248304142E-06
(PID.TID 0000.0001) %MON ad_extforcing_adqnet_max     =   0.0000000000000E+00
(PID.TID 0000.0001) %MON ad_extforcing_adqnet_min     =   0.0000000000000E+00
(PID.TID 0000.0001) %MON ad_extforcing_adqnet_mean    =   0.0000000000000E+00
(PID.TID 0000.0001) %MON ad_extforcing_adqnet_sd      =   0.0000000000000E+00
(PID.TID 0000.0001) %MON ad_extforcing_adqnet_del2    =   0.0000000000000E+00
(PID.TID 0000.0001) %MON ad_extforcing_adempmr_max    =   1.3670151187722E+02
(PID.TID 0000.0001) %MON ad_extforcing_adempmr_min    =  -8.2185275600943E+01
(PID.TID 0000.0001) %MON ad_extforcing_adempmr_mean   =   2.6590281838699E-01
(PID.TID 0000.0001) %MON ad_extforcing_adempmr_sd     =   9.5512024858670E+00
(PID.TID 0000.0001) %MON ad_extforcing_adempmr_del2   =   9.5933473182558E-01
(PID.TID 0000.0001) %MON ad_extforcing_adfu_max       =   0.0000000000000E+00
(PID.TID 0000.0001) %MON ad_extforcing_adfu_min       =   0.0000000000000E+00
(PID.TID 0000.0001) %MON ad_extforcing_adfu_mean      =   0.0000000000000E+00
(PID.TID 0000.0001) %MON ad_extforcing_adfu_sd        =   0.0000000000000E+00
(PID.TID 0000.0001) %MON ad_extforcing_adfu_del2      =   0.0000000000000E+00
(PID.TID 0000.0001) %MON ad_extforcing_adfv_max       =   0.0000000000000E+00
(PID.TID 0000.0001) %MON ad_extforcing_adfv_min       =   0.0000000000000E+00
(PID.TID 0000.0001) %MON ad_extforcing_adfv_mean      =   0.0000000000000E+00
(PID.TID 0000.0001) %MON ad_extforcing_adfv_sd        =   0.0000000000000E+00
(PID.TID 0000.0001) %MON ad_extforcing_adfv_del2      =   0.0000000000000E+00
(PID.TID 0000.0001) %MON ad_advcfl_aduvel_max         =   1.1123203063989E-03
(PID.TID 0000.0001) %MON ad_advcfl_advvel_max         =   3.9495774063267E-03
(PID.TID 0000.0001) %MON ad_advcfl_adwvel_max         =   2.0599549167314E+02
(PID.TID 0000.0001) %MON ad_advcfl_adW_hf_max         =   2.9081716471503E+02
(PID.TID 0000.0001) // =======================================================
(PID.TID 0000.0001) // End MONITOR dynamic field statistics
(PID.TID 0000.0001) // =======================================================
 cg2d: Sum(rhs),rhsMax =   3.96062102927565E-14  4.58254633380242E-08
time,SST,SSS,fu,fv,Q,E-P,i0,i1,a,b =   4.1472E+06 -4.9706E-01  3.4437E+01 -1.5711E-02 -1.5930E-02  2.3797E+02  0.0000E+00     2     3  1.0000E-01  9.0000E-01
time,fu0,fu1,fu =   4.1472E+06 -1.4435E-02 -2.7199E-02 -1.5711E-02  1.000000000000000E-01  9.000000000000000E-01
 cg2d: Sum(rhs),rhsMax =   3.16754955598242E-12  9.97004063040942E+00
time,SST,SSS,fu,fv,Q,E-P,i0,i1,a,b =   4.1904E+06 -4.9126E-01  3.4440E+01 -1.5924E-02 -1.5646E-02  2.3755E+02  0.0000E+00     2     3  1.1667E-01  8.8333E-01
time,fu0,fu1,fu =   4.1904E+06 -1.4435E-02 -2.7199E-02 -1.5924E-02  1.166666666666667E-01  8.833333333333333E-01
 cg2d: Sum(rhs),rhsMax =   3.19356346922817E-12  1.01269749889254E+01
time,SST,SSS,fu,fv,Q,E-P,i0,i1,a,b =   4.2336E+06 -4.8546E-01  3.4442E+01 -1.6137E-02 -1.5361E-02  2.3714E+02  0.0000E+00     2     3  1.3333E-01  8.6667E-01
time,fu0,fu1,fu =   4.2336E+06 -1.4435E-02 -2.7199E-02 -1.6137E-02  1.333333333333333E-01  8.666666666666667E-01
 cg2d: Sum(rhs),rhsMax =   3.14776676946238E-12  1.02123013095249E+01
(PID.TID 0000.0001) // =======================================================
(PID.TID 0000.0001) // Begin MONITOR dynamic field statistics
(PID.TID 0000.0001) // =======================================================
(PID.TID 0000.0001) %MON ad_time_tsnumber             =                    99
(PID.TID 0000.0001) %MON ad_time_secondsf             =   4.2768000000000E+06
(PID.TID 0000.0001) %MON ad_dynstat_adeta_max         =   4.1736738790785E-03
(PID.TID 0000.0001) %MON ad_dynstat_adeta_min         =  -6.5250826920615E-03
(PID.TID 0000.0001) %MON ad_dynstat_adeta_mean        =   1.1300053405243E-05
(PID.TID 0000.0001) %MON ad_dynstat_adeta_sd          =   4.4197528479352E-04
(PID.TID 0000.0001) %MON ad_dynstat_adeta_del2        =   3.7290558980419E-05
(PID.TID 0000.0001) %MON ad_dynstat_aduvel_max        =   9.7880257427120E-03
(PID.TID 0000.0001) %MON ad_dynstat_aduvel_min        =  -2.6741291907580E-03
(PID.TID 0000.0001) %MON ad_dynstat_aduvel_mean       =   2.5243730580717E-05
(PID.TID 0000.0001) %MON ad_dynstat_aduvel_sd         =   3.2020944604769E-04
(PID.TID 0000.0001) %MON ad_dynstat_aduvel_del2       =   1.4671789230307E-05
(PID.TID 0000.0001) %MON ad_dynstat_advvel_max        =   3.9049562935721E-02
(PID.TID 0000.0001) %MON ad_dynstat_advvel_min        =  -1.9368867511615E-02
(PID.TID 0000.0001) %MON ad_dynstat_advvel_mean       =  -5.6618760408737E-05
(PID.TID 0000.0001) %MON ad_dynstat_advvel_sd         =   1.6974427792494E-03
(PID.TID 0000.0001) %MON ad_dynstat_advvel_del2       =   1.1616122973451E-04
(PID.TID 0000.0001) %MON ad_dynstat_adwvel_max        =   1.0824511745674E+00
(PID.TID 0000.0001) %MON ad_dynstat_adwvel_min        =  -9.9509542295783E-01
(PID.TID 0000.0001) %MON ad_dynstat_adwvel_mean       =   8.8094096366880E-05
(PID.TID 0000.0001) %MON ad_dynstat_adwvel_sd         =   4.1767693470441E-02
(PID.TID 0000.0001) %MON ad_dynstat_adwvel_del2       =   3.2800856804263E-03
(PID.TID 0000.0001) %MON ad_dynstat_adtheta_max       =   2.8471282743885E-03
(PID.TID 0000.0001) %MON ad_dynstat_adtheta_min       =  -2.9860689572486E-03
(PID.TID 0000.0001) %MON ad_dynstat_adtheta_mean      =   4.0785240961298E-07
(PID.TID 0000.0001) %MON ad_dynstat_adtheta_sd        =   2.2225692711944E-04
(PID.TID 0000.0001) %MON ad_dynstat_adtheta_del2      =   1.9079935258684E-05
(PID.TID 0000.0001) %MON ad_dynstat_adsalt_max        =   1.5330172162026E-02
(PID.TID 0000.0001) %MON ad_dynstat_adsalt_min        =  -1.3394634216862E-02
(PID.TID 0000.0001) %MON ad_dynstat_adsalt_mean       =  -2.4741351831262E-06
(PID.TID 0000.0001) %MON ad_dynstat_adsalt_sd         =   1.0228153737188E-03
(PID.TID 0000.0001) %MON ad_dynstat_adsalt_del2       =   8.2826945245135E-05
(PID.TID 0000.0001) %MON ad_dynstat_adsst_max         =   8.3069389699619E-05
(PID.TID 0000.0001) %MON ad_dynstat_adsst_min         =  -1.4633211707770E-04
(PID.TID 0000.0001) %MON ad_dynstat_adsst_mean        =  -6.2051114880263E-07
(PID.TID 0000.0001) %MON ad_dynstat_adsst_sd          =   9.1074434066945E-06
(PID.TID 0000.0001) %MON ad_dynstat_adsst_del2        =   9.1507931198184E-07
(PID.TID 0000.0001) %MON ad_dynstat_adsss_max         =   4.2884031289553E-04
(PID.TID 0000.0001) %MON ad_dynstat_adsss_min         =  -2.6932569887316E-04
(PID.TID 0000.0001) %MON ad_dynstat_adsss_mean        =   1.1219587659875E-06
(PID.TID 0000.0001) %MON ad_dynstat_adsss_sd          =   2.6606840361516E-05
(PID.TID 0000.0001) %MON ad_dynstat_adsss_del2        =   2.6875501119427E-06
(PID.TID 0000.0001) %MON ad_extforcing_adqnet_max     =   0.0000000000000E+00
(PID.TID 0000.0001) %MON ad_extforcing_adqnet_min     =   0.0000000000000E+00
(PID.TID 0000.0001) %MON ad_extforcing_adqnet_mean    =   0.0000000000000E+00
(PID.TID 0000.0001) %MON ad_extforcing_adqnet_sd      =   0.0000000000000E+00
(PID.TID 0000.0001) %MON ad_extforcing_adqnet_del2    =   0.0000000000000E+00
(PID.TID 0000.0001) %MON ad_extforcing_adempmr_max    =   1.5347798008873E+02
(PID.TID 0000.0001) %MON ad_extforcing_adempmr_min    =  -9.4746051661880E+01
(PID.TID 0000.0001) %MON ad_extforcing_adempmr_mean   =   2.8829638405513E-01
(PID.TID 0000.0001) %MON ad_extforcing_adempmr_sd     =   1.0777910190311E+01
(PID.TID 0000.0001) %MON ad_extforcing_adempmr_del2   =   1.0831098229068E+00
(PID.TID 0000.0001) %MON ad_extforcing_adfu_max       =   0.0000000000000E+00
(PID.TID 0000.0001) %MON ad_extforcing_adfu_min       =   0.0000000000000E+00
(PID.TID 0000.0001) %MON ad_extforcing_adfu_mean      =   0.0000000000000E+00
(PID.TID 0000.0001) %MON ad_extforcing_adfu_sd        =   0.0000000000000E+00
(PID.TID 0000.0001) %MON ad_extforcing_adfu_del2      =   0.0000000000000E+00
(PID.TID 0000.0001) %MON ad_extforcing_adfv_max       =   0.0000000000000E+00
(PID.TID 0000.0001) %MON ad_extforcing_adfv_min       =   0.0000000000000E+00
(PID.TID 0000.0001) %MON ad_extforcing_adfv_mean      =   0.0000000000000E+00
(PID.TID 0000.0001) %MON ad_extforcing_adfv_sd        =   0.0000000000000E+00
(PID.TID 0000.0001) %MON ad_extforcing_adfv_del2      =   0.0000000000000E+00
(PID.TID 0000.0001) %MON ad_advcfl_aduvel_max         =   1.0979218464257E-03
(PID.TID 0000.0001) %MON ad_advcfl_advvel_max         =   3.7933518993580E-03
(PID.TID 0000.0001) %MON ad_advcfl_adwvel_max         =   2.2298565871794E+02
(PID.TID 0000.0001) %MON ad_advcfl_adW_hf_max         =   3.1480328289592E+02
(PID.TID 0000.0001) // =======================================================
(PID.TID 0000.0001) // End MONITOR dynamic field statistics
(PID.TID 0000.0001) // =======================================================
 cg2d: Sum(rhs),rhsMax =  -2.81393831846888E-14  4.73877837889787E-08
(PID.TID 0000.0001) // =======================================================
(PID.TID 0000.0001) // Begin MONITOR dynamic field statistics
(PID.TID 0000.0001) // =======================================================
(PID.TID 0000.0001) %MON ad_time_tsnumber             =                    98
(PID.TID 0000.0001) %MON ad_time_secondsf             =   4.2336000000000E+06
(PID.TID 0000.0001) %MON ad_dynstat_adeta_max         =   4.3508840563969E-03
(PID.TID 0000.0001) %MON ad_dynstat_adeta_min         =  -6.7889888368428E-03
(PID.TID 0000.0001) %MON ad_dynstat_adeta_mean        =   1.1714691528428E-05
(PID.TID 0000.0001) %MON ad_dynstat_adeta_sd          =   4.5549132566228E-04
(PID.TID 0000.0001) %MON ad_dynstat_adeta_del2        =   3.8567151960808E-05
(PID.TID 0000.0001) %MON ad_dynstat_aduvel_max        =   9.5667533047052E-03
(PID.TID 0000.0001) %MON ad_dynstat_aduvel_min        =  -2.8907900213259E-03
(PID.TID 0000.0001) %MON ad_dynstat_aduvel_mean       =   2.5032360294229E-05
(PID.TID 0000.0001) %MON ad_dynstat_aduvel_sd         =   3.3408568613343E-04
(PID.TID 0000.0001) %MON ad_dynstat_aduvel_del2       =   1.5362686981066E-05
(PID.TID 0000.0001) %MON ad_dynstat_advvel_max        =   3.7162862359007E-02
(PID.TID 0000.0001) %MON ad_dynstat_advvel_min        =  -1.8560456253405E-02
(PID.TID 0000.0001) %MON ad_dynstat_advvel_mean       =  -5.6081332852762E-05
(PID.TID 0000.0001) %MON ad_dynstat_advvel_sd         =   1.6360707078425E-03
(PID.TID 0000.0001) %MON ad_dynstat_advvel_del2       =   1.0897504495585E-04
(PID.TID 0000.0001) %MON ad_dynstat_adwvel_max        =   1.1645854072666E+00
(PID.TID 0000.0001) %MON ad_dynstat_adwvel_min        =  -1.0346682964580E+00
(PID.TID 0000.0001) %MON ad_dynstat_adwvel_mean       =   8.8849824026647E-05
(PID.TID 0000.0001) %MON ad_dynstat_adwvel_sd         =   4.3585634531408E-02
(PID.TID 0000.0001) %MON ad_dynstat_adwvel_del2       =   3.3985666332434E-03
(PID.TID 0000.0001) %MON ad_dynstat_adtheta_max       =   3.0379269115530E-03
(PID.TID 0000.0001) %MON ad_dynstat_adtheta_min       =  -3.1319617670311E-03
(PID.TID 0000.0001) %MON ad_dynstat_adtheta_mean      =   4.4858525318401E-07
(PID.TID 0000.0001) %MON ad_dynstat_adtheta_sd        =   2.2993231885139E-04
(PID.TID 0000.0001) %MON ad_dynstat_adtheta_del2      =   1.9583623718458E-05
(PID.TID 0000.0001) %MON ad_dynstat_adsalt_max        =   1.6079214950711E-02
(PID.TID 0000.0001) %MON ad_dynstat_adsalt_min        =  -1.4218867923342E-02
(PID.TID 0000.0001) %MON ad_dynstat_adsalt_mean       =  -2.6970966526240E-06
(PID.TID 0000.0001) %MON ad_dynstat_adsalt_sd         =   1.0572524504187E-03
(PID.TID 0000.0001) %MON ad_dynstat_adsalt_del2       =   8.4910899857713E-05
(PID.TID 0000.0001) %MON ad_dynstat_adsst_max         =   9.0123505753116E-05
(PID.TID 0000.0001) %MON ad_dynstat_adsst_min         =  -1.5402931265394E-04
(PID.TID 0000.0001) %MON ad_dynstat_adsst_mean        =  -6.5479256931657E-07
(PID.TID 0000.0001) %MON ad_dynstat_adsst_sd          =   9.6095158483260E-06
(PID.TID 0000.0001) %MON ad_dynstat_adsst_del2        =   9.6191963133426E-07
(PID.TID 0000.0001) %MON ad_dynstat_adsss_max         =   4.5189010712459E-04
(PID.TID 0000.0001) %MON ad_dynstat_adsss_min         =  -2.9173277886848E-04
(PID.TID 0000.0001) %MON ad_dynstat_adsss_mean        =   1.2022502301862E-06
(PID.TID 0000.0001) %MON ad_dynstat_adsss_sd          =   2.8097060181389E-05
(PID.TID 0000.0001) %MON ad_dynstat_adsss_del2        =   2.8289215819659E-06
(PID.TID 0000.0001) %MON ad_extforcing_adqnet_max     =   0.0000000000000E+00
(PID.TID 0000.0001) %MON ad_extforcing_adqnet_min     =   0.0000000000000E+00
(PID.TID 0000.0001) %MON ad_extforcing_adqnet_mean    =   0.0000000000000E+00
(PID.TID 0000.0001) %MON ad_extforcing_adqnet_sd      =   0.0000000000000E+00
(PID.TID 0000.0001) %MON ad_extforcing_adqnet_del2    =   0.0000000000000E+00
(PID.TID 0000.0001) %MON ad_extforcing_adempmr_max    =   1.7109057135309E+02
(PID.TID 0000.0001) %MON ad_extforcing_adempmr_min    =  -1.0818732109884E+02
(PID.TID 0000.0001) %MON ad_extforcing_adempmr_mean   =   3.1318733283998E-01
(PID.TID 0000.0001) %MON ad_extforcing_adempmr_sd     =   1.2065528632356E+01
(PID.TID 0000.0001) %MON ad_extforcing_adempmr_del2   =   1.2113351980489E+00
(PID.TID 0000.0001) %MON ad_extforcing_adfu_max       =   0.0000000000000E+00
(PID.TID 0000.0001) %MON ad_extforcing_adfu_min       =   0.0000000000000E+00
(PID.TID 0000.0001) %MON ad_extforcing_adfu_mean      =   0.0000000000000E+00
(PID.TID 0000.0001) %MON ad_extforcing_adfu_sd        =   0.0000000000000E+00
(PID.TID 0000.0001) %MON ad_extforcing_adfu_del2      =   0.0000000000000E+00
(PID.TID 0000.0001) %MON ad_extforcing_adfv_max       =   0.0000000000000E+00
(PID.TID 0000.0001) %MON ad_extforcing_adfv_min       =   0.0000000000000E+00
(PID.TID 0000.0001) %MON ad_extforcing_adfv_mean      =   0.0000000000000E+00
(PID.TID 0000.0001) %MON ad_extforcing_adfv_sd        =   0.0000000000000E+00
(PID.TID 0000.0001) %MON ad_extforcing_adfv_del2      =   0.0000000000000E+00
(PID.TID 0000.0001) %MON ad_advcfl_aduvel_max         =   1.0731017396866E-03
(PID.TID 0000.0001) %MON ad_advcfl_advvel_max         =   3.6100740678500E-03
(PID.TID 0000.0001) %MON ad_advcfl_adwvel_max         =   2.4000289563890E+02
(PID.TID 0000.0001) %MON ad_advcfl_adW_hf_max         =   3.3882761737257E+02
(PID.TID 0000.0001) // =======================================================
(PID.TID 0000.0001) // End MONITOR dynamic field statistics
(PID.TID 0000.0001) // =======================================================
 cg2d: Sum(rhs),rhsMax =  -6.47524297636010E-14  4.87796873222291E-08
(PID.TID 0000.0001) // =======================================================
(PID.TID 0000.0001) // Begin MONITOR dynamic field statistics
(PID.TID 0000.0001) // =======================================================
(PID.TID 0000.0001) %MON ad_time_tsnumber             =                    97
(PID.TID 0000.0001) %MON ad_time_secondsf             =   4.1904000000000E+06
(PID.TID 0000.0001) %MON ad_dynstat_adeta_max         =   4.5197566340074E-03
(PID.TID 0000.0001) %MON ad_dynstat_adeta_min         =  -7.0304687760869E-03
(PID.TID 0000.0001) %MON ad_dynstat_adeta_mean        =   1.2088764984237E-05
(PID.TID 0000.0001) %MON ad_dynstat_adeta_sd          =   4.6795356181630E-04
(PID.TID 0000.0001) %MON ad_dynstat_adeta_del2        =   3.9694596658347E-05
(PID.TID 0000.0001) %MON ad_dynstat_aduvel_max        =   9.2434351109087E-03
(PID.TID 0000.0001) %MON ad_dynstat_aduvel_min        =  -3.0913492418835E-03
(PID.TID 0000.0001) %MON ad_dynstat_aduvel_mean       =   2.4445584861156E-05
(PID.TID 0000.0001) %MON ad_dynstat_aduvel_sd         =   3.4617210134803E-04
(PID.TID 0000.0001) %MON ad_dynstat_aduvel_del2       =   1.6008391094686E-05
(PID.TID 0000.0001) %MON ad_dynstat_advvel_max        =   3.5019557405643E-02
(PID.TID 0000.0001) %MON ad_dynstat_advvel_min        =  -1.8838464208261E-02
(PID.TID 0000.0001) %MON ad_dynstat_advvel_mean       =  -5.4590685182970E-05
(PID.TID 0000.0001) %MON ad_dynstat_advvel_sd         =   1.5696134029845E-03
(PID.TID 0000.0001) %MON ad_dynstat_advvel_del2       =   1.0175851688446E-04
(PID.TID 0000.0001) %MON ad_dynstat_adwvel_max        =   1.2462077701220E+00
(PID.TID 0000.0001) %MON ad_dynstat_adwvel_min        =  -1.0695943744494E+00
(PID.TID 0000.0001) %MON ad_dynstat_adwvel_mean       =   8.9412558429460E-05
(PID.TID 0000.0001) %MON ad_dynstat_adwvel_sd         =   4.5214599658436E-02
(PID.TID 0000.0001) %MON ad_dynstat_adwvel_del2       =   3.4995397149203E-03
(PID.TID 0000.0001) %MON ad_dynstat_adtheta_max       =   3.2249080089387E-03
(PID.TID 0000.0001) %MON ad_dynstat_adtheta_min       =  -3.2666981838737E-03
(PID.TID 0000.0001) %MON ad_dynstat_adtheta_mean      =   4.8939124329284E-07
(PID.TID 0000.0001) %MON ad_dynstat_adtheta_sd        =   2.3645394835060E-04
(PID.TID 0000.0001) %MON ad_dynstat_adtheta_del2      =   1.9963688022997E-05
(PID.TID 0000.0001) %MON ad_dynstat_adsalt_max        =   1.6771037122717E-02
(PID.TID 0000.0001) %MON ad_dynstat_adsalt_min        =  -1.5012625250051E-02
(PID.TID 0000.0001) %MON ad_dynstat_adsalt_mean       =  -2.9192782702062E-06
(PID.TID 0000.0001) %MON ad_dynstat_adsalt_sd         =   1.0862740571541E-03
(PID.TID 0000.0001) %MON ad_dynstat_adsalt_del2       =   8.6446551677565E-05
(PID.TID 0000.0001) %MON ad_dynstat_adsst_max         =   9.7148259020587E-05
(PID.TID 0000.0001) %MON ad_dynstat_adsst_min         =  -1.6121511831834E-04
(PID.TID 0000.0001) %MON ad_dynstat_adsst_mean        =  -6.8230034765170E-07
(PID.TID 0000.0001) %MON ad_dynstat_adsst_sd          =   1.0091141207174E-05
(PID.TID 0000.0001) %MON ad_dynstat_adsst_del2        =   1.0072212341279E-06
(PID.TID 0000.0001) %MON ad_dynstat_adsss_max         =   4.7341096114465E-04
(PID.TID 0000.0001) %MON ad_dynstat_adsss_min         =  -3.1410957648654E-04
(PID.TID 0000.0001) %MON ad_dynstat_adsss_mean        =   1.2664221918325E-06
(PID.TID 0000.0001) %MON ad_dynstat_adsss_sd          =   2.9534563566757E-05
(PID.TID 0000.0001) %MON ad_dynstat_adsss_del2        =   2.9684464080279E-06
(PID.TID 0000.0001) %MON ad_extforcing_adqnet_max     =   0.0000000000000E+00
(PID.TID 0000.0001) %MON ad_extforcing_adqnet_min     =   0.0000000000000E+00
(PID.TID 0000.0001) %MON ad_extforcing_adqnet_mean    =   0.0000000000000E+00
(PID.TID 0000.0001) %MON ad_extforcing_adqnet_sd      =   0.0000000000000E+00
(PID.TID 0000.0001) %MON ad_extforcing_adqnet_del2    =   0.0000000000000E+00
(PID.TID 0000.0001) %MON ad_extforcing_adempmr_max    =   1.8947685531380E+02
(PID.TID 0000.0001) %MON ad_extforcing_adempmr_min    =  -1.2250047694081E+02
(PID.TID 0000.0001) %MON ad_extforcing_adempmr_mean   =   3.4105522719144E-01
(PID.TID 0000.0001) %MON ad_extforcing_adempmr_sd     =   1.3407888191804E+01
(PID.TID 0000.0001) %MON ad_extforcing_adempmr_del2   =   1.3431843666448E+00
(PID.TID 0000.0001) %MON ad_extforcing_adfu_max       =   0.0000000000000E+00
(PID.TID 0000.0001) %MON ad_extforcing_adfu_min       =   0.0000000000000E+00
(PID.TID 0000.0001) %MON ad_extforcing_adfu_mean      =   0.0000000000000E+00
(PID.TID 0000.0001) %MON ad_extforcing_adfu_sd        =   0.0000000000000E+00
(PID.TID 0000.0001) %MON ad_extforcing_adfu_del2      =   0.0000000000000E+00
(PID.TID 0000.0001) %MON ad_extforcing_adfv_max       =   0.0000000000000E+00
(PID.TID 0000.0001) %MON ad_extforcing_adfv_min       =   0.0000000000000E+00
(PID.TID 0000.0001) %MON ad_extforcing_adfv_mean      =   0.0000000000000E+00
(PID.TID 0000.0001) %MON ad_extforcing_adfv_sd        =   0.0000000000000E+00
(PID.TID 0000.0001) %MON ad_extforcing_adfv_del2      =   0.0000000000000E+00
(PID.TID 0000.0001) %MON ad_advcfl_aduvel_max         =   1.0368351709579E-03
(PID.TID 0000.0001) %MON ad_advcfl_advvel_max         =   3.4018691788700E-03
(PID.TID 0000.0001) %MON ad_advcfl_adwvel_max         =   2.5693374590761E+02
(PID.TID 0000.0001) %MON ad_advcfl_adW_hf_max         =   3.6272999422251E+02
(PID.TID 0000.0001) // =======================================================
(PID.TID 0000.0001) // End MONITOR dynamic field statistics
(PID.TID 0000.0001) // =======================================================
 cg2d: Sum(rhs),rhsMax =  -8.32955395196205E-14  4.99467747106513E-08
time,SST,SSS,fu,fv,Q,E-P,i0,i1,a,b =   4.0176E+06 -5.1446E-01  3.4429E+01 -1.5073E-02 -1.6783E-02  2.3923E+02  0.0000E+00     2     3  5.0000E-02  9.5000E-01
time,fu0,fu1,fu =   4.0176E+06 -1.4435E-02 -2.7199E-02 -1.5073E-02  5.000000000000000E-02  9.500000000000000E-01
 cg2d: Sum(rhs),rhsMax =   3.74703740257942E-12  9.08149159275093E+00
time,SST,SSS,fu,fv,Q,E-P,i0,i1,a,b =   4.0608E+06 -5.0866E-01  3.4432E+01 -1.5286E-02 -1.6498E-02  2.3881E+02  0.0000E+00     2     3  6.6667E-02  9.3333E-01
time,fu0,fu1,fu =   4.0608E+06 -1.4435E-02 -2.7199E-02 -1.5286E-02  6.666666666666667E-02  9.333333333333333E-01
 cg2d: Sum(rhs),rhsMax =   3.19255732961210E-12  9.44424370111448E+00
time,SST,SSS,fu,fv,Q,E-P,i0,i1,a,b =   4.1040E+06 -5.0286E-01  3.4434E+01 -1.5498E-02 -1.6214E-02  2.3839E+02  0.0000E+00     2     3  8.3333E-02  9.1667E-01
time,fu0,fu1,fu =   4.1040E+06 -1.4435E-02 -2.7199E-02 -1.5498E-02  8.333333333333333E-02  9.166666666666666E-01
 cg2d: Sum(rhs),rhsMax =   3.17948445349714E-12  9.74175914288518E+00
(PID.TID 0000.0001) // =======================================================
(PID.TID 0000.0001) // Begin MONITOR dynamic field statistics
(PID.TID 0000.0001) // =======================================================
(PID.TID 0000.0001) %MON ad_time_tsnumber             =                    96
(PID.TID 0000.0001) %MON ad_time_secondsf             =   4.1472000000000E+06
(PID.TID 0000.0001) %MON ad_dynstat_adeta_max         =   4.6802293225264E-03
(PID.TID 0000.0001) %MON ad_dynstat_adeta_min         =  -7.2502484459297E-03
(PID.TID 0000.0001) %MON ad_dynstat_adeta_mean        =   1.2421145658293E-05
(PID.TID 0000.0001) %MON ad_dynstat_adeta_sd          =   4.7934796801825E-04
(PID.TID 0000.0001) %MON ad_dynstat_adeta_del2        =   4.0785021604679E-05
(PID.TID 0000.0001) %MON ad_dynstat_aduvel_max        =   8.8121603925723E-03
(PID.TID 0000.0001) %MON ad_dynstat_aduvel_min        =  -3.2667740156727E-03
(PID.TID 0000.0001) %MON ad_dynstat_aduvel_mean       =   2.3438828249944E-05
(PID.TID 0000.0001) %MON ad_dynstat_aduvel_sd         =   3.5632400576064E-04
(PID.TID 0000.0001) %MON ad_dynstat_aduvel_del2       =   1.6640223102928E-05
(PID.TID 0000.0001) %MON ad_dynstat_advvel_max        =   3.2643469202371E-02
(PID.TID 0000.0001) %MON ad_dynstat_advvel_min        =  -1.9221021808873E-02
(PID.TID 0000.0001) %MON ad_dynstat_advvel_mean       =  -5.2166624100032E-05
(PID.TID 0000.0001) %MON ad_dynstat_advvel_sd         =   1.5003066931900E-03
(PID.TID 0000.0001) %MON ad_dynstat_advvel_del2       =   9.4888535850366E-05
(PID.TID 0000.0001) %MON ad_dynstat_adwvel_max        =   1.3267980633159E+00
(PID.TID 0000.0001) %MON ad_dynstat_adwvel_min        =  -1.1002912816322E+00
(PID.TID 0000.0001) %MON ad_dynstat_adwvel_mean       =   9.0119976072451E-05
(PID.TID 0000.0001) %MON ad_dynstat_adwvel_sd         =   4.6636599408900E-02
(PID.TID 0000.0001) %MON ad_dynstat_adwvel_del2       =   3.5806071929008E-03
(PID.TID 0000.0001) %MON ad_dynstat_adtheta_max       =   3.4069847700561E-03
(PID.TID 0000.0001) %MON ad_dynstat_adtheta_min       =  -3.3895081542637E-03
(PID.TID 0000.0001) %MON ad_dynstat_adtheta_mean      =   5.2989679546844E-07
(PID.TID 0000.0001) %MON ad_dynstat_adtheta_sd        =   2.4180242465481E-04
(PID.TID 0000.0001) %MON ad_dynstat_adtheta_del2      =   2.0217735569947E-05
(PID.TID 0000.0001) %MON ad_dynstat_adsalt_max        =   1.7401700420421E-02
(PID.TID 0000.0001) %MON ad_dynstat_adsalt_min        =  -1.5770568748950E-02
(PID.TID 0000.0001) %MON ad_dynstat_adsalt_mean       =  -3.1387377269148E-06
(PID.TID 0000.0001) %MON ad_dynstat_adsalt_sd         =   1.1098020560483E-03
(PID.TID 0000.0001) %MON ad_dynstat_adsalt_del2       =   8.7425156989882E-05
(PID.TID 0000.0001) %MON ad_dynstat_adsst_max         =   1.0410636616541E-04
(PID.TID 0000.0001) %MON ad_dynstat_adsst_min         =  -1.6784503897181E-04
(PID.TID 0000.0001) %MON ad_dynstat_adsst_mean        =  -6.9536148621145E-07
(PID.TID 0000.0001) %MON ad_dynstat_adsst_sd          =   1.0532322804112E-05
(PID.TID 0000.0001) %MON ad_dynstat_adsst_del2        =   1.0493213317664E-06
(PID.TID 0000.0001) %MON ad_dynstat_adsss_max         =   4.9326572575218E-04
(PID.TID 0000.0001) %MON ad_dynstat_adsss_min         =  -3.3634970279041E-04
(PID.TID 0000.0001) %MON ad_dynstat_adsss_mean        =   1.2938899604849E-06
(PID.TID 0000.0001) %MON ad_dynstat_adsss_sd          =   3.0878394203260E-05
(PID.TID 0000.0001) %MON ad_dynstat_adsss_del2        =   3.1046827843066E-06
(PID.TID 0000.0001) %MON ad_extforcing_adqnet_max     =   0.0000000000000E+00
(PID.TID 0000.0001) %MON ad_extforcing_adqnet_min     =   0.0000000000000E+00
(PID.TID 0000.0001) %MON ad_extforcing_adqnet_mean    =   0.0000000000000E+00
(PID.TID 0000.0001) %MON ad_extforcing_adqnet_sd      =   0.0000000000000E+00
(PID.TID 0000.0001) %MON ad_extforcing_adqnet_del2    =   0.0000000000000E+00
(PID.TID 0000.0001) %MON ad_extforcing_adempmr_max    =   2.0856908159289E+02
(PID.TID 0000.0001) %MON ad_extforcing_adempmr_min    =  -1.3767350018798E+02
(PID.TID 0000.0001) %MON ad_extforcing_adempmr_mean   =   3.7026694006104E-01
(PID.TID 0000.0001) %MON ad_extforcing_adempmr_sd     =   1.4805399647523E+01
(PID.TID 0000.0001) %MON ad_extforcing_adempmr_del2   =   1.4792999671470E+00
(PID.TID 0000.0001) %MON ad_extforcing_adfu_max       =   0.0000000000000E+00
(PID.TID 0000.0001) %MON ad_extforcing_adfu_min       =   0.0000000000000E+00
(PID.TID 0000.0001) %MON ad_extforcing_adfu_mean      =   0.0000000000000E+00
(PID.TID 0000.0001) %MON ad_extforcing_adfu_sd        =   0.0000000000000E+00
(PID.TID 0000.0001) %MON ad_extforcing_adfu_del2      =   0.0000000000000E+00
(PID.TID 0000.0001) %MON ad_extforcing_adfv_max       =   0.0000000000000E+00
(PID.TID 0000.0001) %MON ad_extforcing_adfv_min       =   0.0000000000000E+00
(PID.TID 0000.0001) %MON ad_extforcing_adfv_mean      =   0.0000000000000E+00
(PID.TID 0000.0001) %MON ad_extforcing_adfv_sd        =   0.0000000000000E+00
(PID.TID 0000.0001) %MON ad_extforcing_adfv_del2      =   0.0000000000000E+00
(PID.TID 0000.0001) %MON ad_advcfl_aduvel_max         =   9.8845912991357E-04
(PID.TID 0000.0001) %MON ad_advcfl_advvel_max         =   3.1710512638588E-03
(PID.TID 0000.0001) %MON ad_advcfl_adwvel_max         =   2.7365774193717E+02
(PID.TID 0000.0001) %MON ad_advcfl_adW_hf_max         =   3.8634034155835E+02
(PID.TID 0000.0001) // =======================================================
(PID.TID 0000.0001) // End MONITOR dynamic field statistics
(PID.TID 0000.0001) // =======================================================
 cg2d: Sum(rhs),rhsMax =  -2.80753610464035E-14  5.08865029162882E-08
(PID.TID 0000.0001) // =======================================================
(PID.TID 0000.0001) // Begin MONITOR dynamic field statistics
(PID.TID 0000.0001) // =======================================================
(PID.TID 0000.0001) %MON ad_time_tsnumber             =                    95
(PID.TID 0000.0001) %MON ad_time_secondsf             =   4.1040000000000E+06
(PID.TID 0000.0001) %MON ad_dynstat_adeta_max         =   4.8322834311324E-03
(PID.TID 0000.0001) %MON ad_dynstat_adeta_min         =  -7.4500833527690E-03
(PID.TID 0000.0001) %MON ad_dynstat_adeta_mean        =   1.2711137311696E-05
(PID.TID 0000.0001) %MON ad_dynstat_adeta_sd          =   4.8952098553132E-04
(PID.TID 0000.0001) %MON ad_dynstat_adeta_del2        =   4.1749081785533E-05
(PID.TID 0000.0001) %MON ad_dynstat_aduvel_max        =   8.2716956777300E-03
(PID.TID 0000.0001) %MON ad_dynstat_aduvel_min        =  -3.4097224750293E-03
(PID.TID 0000.0001) %MON ad_dynstat_aduvel_mean       =   2.1980315222707E-05
(PID.TID 0000.0001) %MON ad_dynstat_aduvel_sd         =   3.6455236210017E-04
(PID.TID 0000.0001) %MON ad_dynstat_aduvel_del2       =   1.7237474868136E-05
(PID.TID 0000.0001) %MON ad_dynstat_advvel_max        =   3.0060097099083E-02
(PID.TID 0000.0001) %MON ad_dynstat_advvel_min        =  -1.9499336375801E-02
(PID.TID 0000.0001) %MON ad_dynstat_advvel_mean       =  -4.8825619426942E-05
(PID.TID 0000.0001) %MON ad_dynstat_advvel_sd         =   1.4303481836696E-03
(PID.TID 0000.0001) %MON ad_dynstat_advvel_del2       =   8.8964710726598E-05
(PID.TID 0000.0001) %MON ad_dynstat_adwvel_max        =   1.4058395918368E+00
(PID.TID 0000.0001) %MON ad_dynstat_adwvel_min        =  -1.1255699743095E+00
(PID.TID 0000.0001) %MON ad_dynstat_adwvel_mean       =   9.0997139480933E-05
(PID.TID 0000.0001) %MON ad_dynstat_adwvel_sd         =   4.7846047180942E-02
(PID.TID 0000.0001) %MON ad_dynstat_adwvel_del2       =   3.6411599322421E-03
(PID.TID 0000.0001) %MON ad_dynstat_adtheta_max       =   3.5831397453959E-03
(PID.TID 0000.0001) %MON ad_dynstat_adtheta_min       =  -3.5768017740398E-03
(PID.TID 0000.0001) %MON ad_dynstat_adtheta_mean      =   5.6990698530396E-07
(PID.TID 0000.0001) %MON ad_dynstat_adtheta_sd        =   2.4598738372810E-04
(PID.TID 0000.0001) %MON ad_dynstat_adtheta_del2      =   2.0350003314483E-05
(PID.TID 0000.0001) %MON ad_dynstat_adsalt_max        =   1.7967368107727E-02
(PID.TID 0000.0001) %MON ad_dynstat_adsalt_min        =  -1.6487833983461E-02
(PID.TID 0000.0001) %MON ad_dynstat_adsalt_mean       =  -3.3539756727668E-06
(PID.TID 0000.0001) %MON ad_dynstat_adsalt_sd         =   1.1278930745726E-03
(PID.TID 0000.0001) %MON ad_dynstat_adsalt_del2       =   8.7860757996891E-05
(PID.TID 0000.0001) %MON ad_dynstat_adsst_max         =   1.1096471654400E-04
(PID.TID 0000.0001) %MON ad_dynstat_adsst_min         =  -1.7387784651418E-04
(PID.TID 0000.0001) %MON ad_dynstat_adsst_mean        =  -7.2467659621797E-07
(PID.TID 0000.0001) %MON ad_dynstat_adsst_sd          =   1.0937039069662E-05
(PID.TID 0000.0001) %MON ad_dynstat_adsst_del2        =   1.0759136607579E-06
(PID.TID 0000.0001) %MON ad_dynstat_adsss_max         =   5.1132704119456E-04
(PID.TID 0000.0001) %MON ad_dynstat_adsss_min         =  -3.5835925724031E-04
(PID.TID 0000.0001) %MON ad_dynstat_adsss_mean        =   1.3662665285657E-06
(PID.TID 0000.0001) %MON ad_dynstat_adsss_sd          =   3.2092491212710E-05
(PID.TID 0000.0001) %MON ad_dynstat_adsss_del2        =   3.1923137758417E-06
(PID.TID 0000.0001) %MON ad_extforcing_adqnet_max     =   0.0000000000000E+00
(PID.TID 0000.0001) %MON ad_extforcing_adqnet_min     =   0.0000000000000E+00
(PID.TID 0000.0001) %MON ad_extforcing_adqnet_mean    =   0.0000000000000E+00
(PID.TID 0000.0001) %MON ad_extforcing_adqnet_sd      =   0.0000000000000E+00
(PID.TID 0000.0001) %MON ad_extforcing_adqnet_del2    =   0.0000000000000E+00
(PID.TID 0000.0001) %MON ad_extforcing_adempmr_max    =   2.2829497671453E+02
(PID.TID 0000.0001) %MON ad_extforcing_adempmr_min    =  -1.5369132331837E+02
(PID.TID 0000.0001) %MON ad_extforcing_adempmr_mean   =   3.9938050225943E-01
(PID.TID 0000.0001) %MON ad_extforcing_adempmr_sd     =   1.6257313509349E+01
(PID.TID 0000.0001) %MON ad_extforcing_adempmr_del2   =   1.6203165162847E+00
(PID.TID 0000.0001) %MON ad_extforcing_adfu_max       =   0.0000000000000E+00
(PID.TID 0000.0001) %MON ad_extforcing_adfu_min       =   0.0000000000000E+00
(PID.TID 0000.0001) %MON ad_extforcing_adfu_mean      =   0.0000000000000E+00
(PID.TID 0000.0001) %MON ad_extforcing_adfu_sd        =   0.0000000000000E+00
(PID.TID 0000.0001) %MON ad_extforcing_adfu_del2      =   0.0000000000000E+00
(PID.TID 0000.0001) %MON ad_extforcing_adfv_max       =   0.0000000000000E+00
(PID.TID 0000.0001) %MON ad_extforcing_adfv_min       =   0.0000000000000E+00
(PID.TID 0000.0001) %MON ad_extforcing_adfv_mean      =   0.0000000000000E+00
(PID.TID 0000.0001) %MON ad_extforcing_adfv_sd        =   0.0000000000000E+00
(PID.TID 0000.0001) %MON ad_extforcing_adfv_del2      =   0.0000000000000E+00
(PID.TID 0000.0001) %MON ad_advcfl_aduvel_max         =   9.2783525812927E-04
(PID.TID 0000.0001) %MON ad_advcfl_advvel_max         =   2.9200973801780E-03
(PID.TID 0000.0001) %MON ad_advcfl_adwvel_max         =   2.9005041038290E+02
(PID.TID 0000.0001) %MON ad_advcfl_adW_hf_max         =   4.0948293230527E+02
(PID.TID 0000.0001) // =======================================================
(PID.TID 0000.0001) // End MONITOR dynamic field statistics
(PID.TID 0000.0001) // =======================================================
 cg2d: Sum(rhs),rhsMax =  -7.69876241750456E-14  5.16204268588171E-08
(PID.TID 0000.0001) // =======================================================
(PID.TID 0000.0001) // Begin MONITOR dynamic field statistics
(PID.TID 0000.0001) // =======================================================
(PID.TID 0000.0001) %MON ad_time_tsnumber             =                    94
(PID.TID 0000.0001) %MON ad_time_secondsf             =   4.0608000000000E+06
(PID.TID 0000.0001) %MON ad_dynstat_adeta_max         =   4.9758283249800E-03
(PID.TID 0000.0001) %MON ad_dynstat_adeta_min         =  -7.6323667420474E-03
(PID.TID 0000.0001) %MON ad_dynstat_adeta_mean        =   1.2958446314536E-05
(PID.TID 0000.0001) %MON ad_dynstat_adeta_sd          =   4.9830891598410E-04
(PID.TID 0000.0001) %MON ad_dynstat_adeta_del2        =   4.2508807540210E-05
(PID.TID 0000.0001) %MON ad_dynstat_aduvel_max        =   7.6241947189727E-03
(PID.TID 0000.0001) %MON ad_dynstat_aduvel_min        =  -3.5135354054951E-03
(PID.TID 0000.0001) %MON ad_dynstat_aduvel_mean       =   2.0043782142317E-05
(PID.TID 0000.0001) %MON ad_dynstat_aduvel_sd         =   3.7098499893790E-04
(PID.TID 0000.0001) %MON ad_dynstat_aduvel_del2       =   1.7788963537396E-05
(PID.TID 0000.0001) %MON ad_dynstat_advvel_max        =   2.7296321778793E-02
(PID.TID 0000.0001) %MON ad_dynstat_advvel_min        =  -1.9662198851221E-02
(PID.TID 0000.0001) %MON ad_dynstat_advvel_mean       =  -4.4599919047128E-05
(PID.TID 0000.0001) %MON ad_dynstat_advvel_sd         =   1.3618732404313E-03
(PID.TID 0000.0001) %MON ad_dynstat_advvel_del2       =   8.4106130734143E-05
(PID.TID 0000.0001) %MON ad_dynstat_adwvel_max        =   1.4828396276390E+00
(PID.TID 0000.0001) %MON ad_dynstat_adwvel_min        =  -1.1451582226817E+00
(PID.TID 0000.0001) %MON ad_dynstat_adwvel_mean       =   9.1361129126592E-05
(PID.TID 0000.0001) %MON ad_dynstat_adwvel_sd         =   4.8846586282060E-02
(PID.TID 0000.0001) %MON ad_dynstat_adwvel_del2       =   3.6834317646752E-03
(PID.TID 0000.0001) %MON ad_dynstat_adtheta_max       =   3.7524377545345E-03
(PID.TID 0000.0001) %MON ad_dynstat_adtheta_min       =  -3.7640547144243E-03
(PID.TID 0000.0001) %MON ad_dynstat_adtheta_mean      =   6.0889126615516E-07
(PID.TID 0000.0001) %MON ad_dynstat_adtheta_sd        =   2.4903572440613E-04
(PID.TID 0000.0001) %MON ad_dynstat_adtheta_del2      =   2.0356876559040E-05
(PID.TID 0000.0001) %MON ad_dynstat_adsalt_max        =   1.8465256168609E-02
(PID.TID 0000.0001) %MON ad_dynstat_adsalt_min        =  -1.7160095837842E-02
(PID.TID 0000.0001) %MON ad_dynstat_adsalt_mean       =  -3.5625965189858E-06
(PID.TID 0000.0001) %MON ad_dynstat_adsalt_sd         =   1.1406886624485E-03
(PID.TID 0000.0001) %MON ad_dynstat_adsalt_del2       =   8.7741930355665E-05
(PID.TID 0000.0001) %MON ad_dynstat_adsst_max         =   1.1769571215844E-04
(PID.TID 0000.0001) %MON ad_dynstat_adsst_min         =  -1.7927536717601E-04
(PID.TID 0000.0001) %MON ad_dynstat_adsst_mean        =  -7.3694162995796E-07
(PID.TID 0000.0001) %MON ad_dynstat_adsst_sd          =   1.1313841302489E-05
(PID.TID 0000.0001) %MON ad_dynstat_adsst_del2        =   1.1089869691524E-06
(PID.TID 0000.0001) %MON ad_dynstat_adsss_max         =   5.2747666469462E-04
(PID.TID 0000.0001) %MON ad_dynstat_adsss_min         =  -3.8006069327106E-04
(PID.TID 0000.0001) %MON ad_dynstat_adsss_mean        =   1.3954786640418E-06
(PID.TID 0000.0001) %MON ad_dynstat_adsss_sd          =   3.3245041437206E-05
(PID.TID 0000.0001) %MON ad_dynstat_adsss_del2        =   3.2969872338420E-06
(PID.TID 0000.0001) %MON ad_extforcing_adqnet_max     =   0.0000000000000E+00
(PID.TID 0000.0001) %MON ad_extforcing_adqnet_min     =   0.0000000000000E+00
(PID.TID 0000.0001) %MON ad_extforcing_adqnet_mean    =   0.0000000000000E+00
(PID.TID 0000.0001) %MON ad_extforcing_adqnet_sd      =   0.0000000000000E+00
(PID.TID 0000.0001) %MON ad_extforcing_adqnet_del2    =   0.0000000000000E+00
(PID.TID 0000.0001) %MON ad_extforcing_adempmr_max    =   2.4857852858607E+02
(PID.TID 0000.0001) %MON ad_extforcing_adempmr_min    =  -1.7053621194173E+02
(PID.TID 0000.0001) %MON ad_extforcing_adempmr_mean   =   4.3137960565667E-01
(PID.TID 0000.0001) %MON ad_extforcing_adempmr_sd     =   1.7748667253588E+01
(PID.TID 0000.0001) %MON ad_extforcing_adempmr_del2   =   1.7630120100573E+00
(PID.TID 0000.0001) %MON ad_extforcing_adfu_max       =   0.0000000000000E+00
(PID.TID 0000.0001) %MON ad_extforcing_adfu_min       =   0.0000000000000E+00
(PID.TID 0000.0001) %MON ad_extforcing_adfu_mean      =   0.0000000000000E+00
(PID.TID 0000.0001) %MON ad_extforcing_adfu_sd        =   0.0000000000000E+00
(PID.TID 0000.0001) %MON ad_extforcing_adfu_del2      =   0.0000000000000E+00
(PID.TID 0000.0001) %MON ad_extforcing_adfv_max       =   0.0000000000000E+00
(PID.TID 0000.0001) %MON ad_extforcing_adfv_min       =   0.0000000000000E+00
(PID.TID 0000.0001) %MON ad_extforcing_adfv_mean      =   0.0000000000000E+00
(PID.TID 0000.0001) %MON ad_extforcing_adfv_sd        =   0.0000000000000E+00
(PID.TID 0000.0001) %MON ad_extforcing_adfv_del2      =   0.0000000000000E+00
(PID.TID 0000.0001) %MON ad_advcfl_aduvel_max         =   8.5520514181285E-04
(PID.TID 0000.0001) %MON ad_advcfl_advvel_max         =   2.6516187706253E-03
(PID.TID 0000.0001) %MON ad_advcfl_adwvel_max         =   3.0599091857660E+02
(PID.TID 0000.0001) %MON ad_advcfl_adW_hf_max         =   4.3198717916697E+02
(PID.TID 0000.0001) // =======================================================
(PID.TID 0000.0001) // End MONITOR dynamic field statistics
(PID.TID 0000.0001) // =======================================================
 cg2d: Sum(rhs),rhsMax =  -1.96153206524774E-13  5.21619157804326E-08
S/R EXTERNAL_FIELDS_LOAD: Reading new data:    2    3        90  3.888000000000E+06
(PID.TID 0000.0001)  MDSREADFIELD: opening global file: trenberth_taux.bin
(PID.TID 0000.0001)  MDSREADFIELD: opening global file: trenberth_taux.bin
(PID.TID 0000.0001)  MDSREADFIELD: opening global file: trenberth_tauy.bin
(PID.TID 0000.0001)  MDSREADFIELD: opening global file: trenberth_tauy.bin
(PID.TID 0000.0001)  MDSREADFIELD: opening global file: ncep_qnet.bin
(PID.TID 0000.0001)  MDSREADFIELD: opening global file: ncep_qnet.bin
(PID.TID 0000.0001)  MDSREADFIELD: opening global file: lev_sst.bin
(PID.TID 0000.0001)  MDSREADFIELD: opening global file: lev_sst.bin
(PID.TID 0000.0001)  MDSREADFIELD: opening global file: lev_sss.bin
(PID.TID 0000.0001)  MDSREADFIELD: opening global file: lev_sss.bin
time,SST,SSS,fu,fv,Q,E-P,i0,i1,a,b =   3.8880E+06 -5.3186E-01  3.4421E+01 -1.4435E-02 -1.7636E-02  2.4048E+02  0.0000E+00     2     3  0.0000E+00  1.0000E+00
time,fu0,fu1,fu =   3.8880E+06 -1.4435E-02 -2.7199E-02 -1.4435E-02  0.000000000000000E+00  1.000000000000000E+00
 cg2d: Sum(rhs),rhsMax =   4.60428917214983E-12  7.88464116714749E+00
time,SST,SSS,fu,fv,Q,E-P,i0,i1,a,b =   3.9312E+06 -5.2606E-01  3.4424E+01 -1.4647E-02 -1.7351E-02  2.4006E+02  0.0000E+00     2     3  1.6667E-02  9.8333E-01
time,fu0,fu1,fu =   3.9312E+06 -1.4435E-02 -2.7199E-02 -1.4647E-02  1.666666666666667E-02  9.833333333333333E-01
 cg2d: Sum(rhs),rhsMax =   4.22110957298827E-12  8.18557512400995E+00
time,SST,SSS,fu,fv,Q,E-P,i0,i1,a,b =   3.9744E+06 -5.2026E-01  3.4426E+01 -1.4860E-02 -1.7067E-02  2.3964E+02  0.0000E+00     2     3  3.3333E-02  9.6667E-01
time,fu0,fu1,fu =   3.9744E+06 -1.4435E-02 -2.7199E-02 -1.4860E-02  3.333333333333333E-02  9.666666666666667E-01
 cg2d: Sum(rhs),rhsMax =   4.47242243239998E-12  8.65937290165749E+00
(PID.TID 0000.0001) // =======================================================
(PID.TID 0000.0001) // Begin MONITOR dynamic field statistics
(PID.TID 0000.0001) // =======================================================
(PID.TID 0000.0001) %MON ad_time_tsnumber             =                    93
(PID.TID 0000.0001) %MON ad_time_secondsf             =   4.0176000000000E+06
(PID.TID 0000.0001) %MON ad_dynstat_adeta_max         =   5.1106204595741E-03
(PID.TID 0000.0001) %MON ad_dynstat_adeta_min         =  -7.7996756424275E-03
(PID.TID 0000.0001) %MON ad_dynstat_adeta_mean        =   1.3163178007496E-05
(PID.TID 0000.0001) %MON ad_dynstat_adeta_sd          =   5.0569545844122E-04
(PID.TID 0000.0001) %MON ad_dynstat_adeta_del2        =   4.3096706882251E-05
(PID.TID 0000.0001) %MON ad_dynstat_aduvel_max        =   6.9435072263350E-03
(PID.TID 0000.0001) %MON ad_dynstat_aduvel_min        =  -3.5728174743075E-03
(PID.TID 0000.0001) %MON ad_dynstat_aduvel_mean       =   1.7605223125389E-05
(PID.TID 0000.0001) %MON ad_dynstat_aduvel_sd         =   3.7582169868325E-04
(PID.TID 0000.0001) %MON ad_dynstat_aduvel_del2       =   1.8281768120658E-05
(PID.TID 0000.0001) %MON ad_dynstat_advvel_max        =   2.4380089729111E-02
(PID.TID 0000.0001) %MON ad_dynstat_advvel_min        =  -1.9699792899036E-02
(PID.TID 0000.0001) %MON ad_dynstat_advvel_mean       =  -3.9540020441535E-05
(PID.TID 0000.0001) %MON ad_dynstat_advvel_sd         =   1.2970737804004E-03
(PID.TID 0000.0001) %MON ad_dynstat_advvel_del2       =   8.0003482470163E-05
(PID.TID 0000.0001) %MON ad_dynstat_adwvel_max        =   1.5573322352944E+00
(PID.TID 0000.0001) %MON ad_dynstat_adwvel_min        =  -1.1589911322685E+00
(PID.TID 0000.0001) %MON ad_dynstat_adwvel_mean       =   9.4331346313808E-05
(PID.TID 0000.0001) %MON ad_dynstat_adwvel_sd         =   4.9617147896905E-02
(PID.TID 0000.0001) %MON ad_dynstat_adwvel_del2       =   3.6984592752834E-03
(PID.TID 0000.0001) %MON ad_dynstat_adtheta_max       =   3.9140362733868E-03
(PID.TID 0000.0001) %MON ad_dynstat_adtheta_min       =  -3.9445053490803E-03
(PID.TID 0000.0001) %MON ad_dynstat_adtheta_mean      =   6.4607673699646E-07
(PID.TID 0000.0001) %MON ad_dynstat_adtheta_sd        =   2.5098435008507E-04
(PID.TID 0000.0001) %MON ad_dynstat_adtheta_del2      =   2.0245219886027E-05
(PID.TID 0000.0001) %MON ad_dynstat_adsalt_max        =   1.8893924858084E-02
(PID.TID 0000.0001) %MON ad_dynstat_adsalt_min        =  -1.7814109382238E-02
(PID.TID 0000.0001) %MON ad_dynstat_adsalt_mean       =  -3.7615941440183E-06
(PID.TID 0000.0001) %MON ad_dynstat_adsalt_sd         =   1.1483802099137E-03
(PID.TID 0000.0001) %MON ad_dynstat_adsalt_del2       =   8.7102319506435E-05
(PID.TID 0000.0001) %MON ad_dynstat_adsst_max         =   1.2427766193562E-04
(PID.TID 0000.0001) %MON ad_dynstat_adsst_min         =  -1.8400295852857E-04
(PID.TID 0000.0001) %MON ad_dynstat_adsst_mean        =  -6.6579197246807E-07
(PID.TID 0000.0001) %MON ad_dynstat_adsst_sd          =   1.1877051549187E-05
(PID.TID 0000.0001) %MON ad_dynstat_adsst_del2        =   1.2025443150487E-06
(PID.TID 0000.0001) %MON ad_dynstat_adsss_max         =   5.4160691014136E-04
(PID.TID 0000.0001) %MON ad_dynstat_adsss_min         =  -4.0139384244910E-04
(PID.TID 0000.0001) %MON ad_dynstat_adsss_mean        =   1.1973994058353E-06
(PID.TID 0000.0001) %MON ad_dynstat_adsss_sd          =   3.4984843877185E-05
(PID.TID 0000.0001) %MON ad_dynstat_adsss_del2        =   3.5771332040871E-06
(PID.TID 0000.0001) %MON ad_extforcing_adqnet_max     =   0.0000000000000E+00
(PID.TID 0000.0001) %MON ad_extforcing_adqnet_min     =   0.0000000000000E+00
(PID.TID 0000.0001) %MON ad_extforcing_adqnet_mean    =   0.0000000000000E+00
(PID.TID 0000.0001) %MON ad_extforcing_adqnet_sd      =   0.0000000000000E+00
(PID.TID 0000.0001) %MON ad_extforcing_adqnet_del2    =   0.0000000000000E+00
(PID.TID 0000.0001) %MON ad_extforcing_adempmr_max    =   2.6934076799701E+02
(PID.TID 0000.0001) %MON ad_extforcing_adempmr_min    =  -1.8818815208056E+02
(PID.TID 0000.0001) %MON ad_extforcing_adempmr_mean   =   4.5149187203543E-01
(PID.TID 0000.0001) %MON ad_extforcing_adempmr_sd     =   1.9319831166441E+01
(PID.TID 0000.0001) %MON ad_extforcing_adempmr_del2   =   1.9191772708781E+00
(PID.TID 0000.0001) %MON ad_extforcing_adfu_max       =   0.0000000000000E+00
(PID.TID 0000.0001) %MON ad_extforcing_adfu_min       =   0.0000000000000E+00
(PID.TID 0000.0001) %MON ad_extforcing_adfu_mean      =   0.0000000000000E+00
(PID.TID 0000.0001) %MON ad_extforcing_adfu_sd        =   0.0000000000000E+00
(PID.TID 0000.0001) %MON ad_extforcing_adfu_del2      =   0.0000000000000E+00
(PID.TID 0000.0001) %MON ad_extforcing_adfv_max       =   0.0000000000000E+00
(PID.TID 0000.0001) %MON ad_extforcing_adfv_min       =   0.0000000000000E+00
(PID.TID 0000.0001) %MON ad_extforcing_adfv_mean      =   0.0000000000000E+00
(PID.TID 0000.0001) %MON ad_extforcing_adfv_sd        =   0.0000000000000E+00
(PID.TID 0000.0001) %MON ad_extforcing_adfv_del2      =   0.0000000000000E+00
(PID.TID 0000.0001) %MON ad_advcfl_aduvel_max         =   7.7121264559586E-04
(PID.TID 0000.0001) %MON ad_advcfl_advvel_max         =   2.3683302123683E-03
(PID.TID 0000.0001) %MON ad_advcfl_adwvel_max         =   3.2136279637194E+02
(PID.TID 0000.0001) %MON ad_advcfl_adW_hf_max         =   4.5368865370156E+02
(PID.TID 0000.0001) // =======================================================
(PID.TID 0000.0001) // End MONITOR dynamic field statistics
(PID.TID 0000.0001) // =======================================================
 cg2d: Sum(rhs),rhsMax =  -5.06972827434005E-13  5.25166761559285E-08
(PID.TID 0000.0001) // =======================================================
(PID.TID 0000.0001) // Begin MONITOR dynamic field statistics
(PID.TID 0000.0001) // =======================================================
(PID.TID 0000.0001) %MON ad_time_tsnumber             =                    92
(PID.TID 0000.0001) %MON ad_time_secondsf             =   3.9744000000000E+06
(PID.TID 0000.0001) %MON ad_dynstat_adeta_max         =   5.2362135094935E-03
(PID.TID 0000.0001) %MON ad_dynstat_adeta_min         =  -7.9542727228750E-03
(PID.TID 0000.0001) %MON ad_dynstat_adeta_mean        =   1.3325646409958E-05
(PID.TID 0000.0001) %MON ad_dynstat_adeta_sd          =   5.1138734427528E-04
(PID.TID 0000.0001) %MON ad_dynstat_adeta_del2        =   4.3467093737337E-05
(PID.TID 0000.0001) %MON ad_dynstat_aduvel_max        =   7.2932087649053E-03
(PID.TID 0000.0001) %MON ad_dynstat_aduvel_min        =  -3.5840223810338E-03
(PID.TID 0000.0001) %MON ad_dynstat_aduvel_mean       =   1.4658778750298E-05
(PID.TID 0000.0001) %MON ad_dynstat_aduvel_sd         =   3.7943259926574E-04
(PID.TID 0000.0001) %MON ad_dynstat_aduvel_del2       =   1.8718469529786E-05
(PID.TID 0000.0001) %MON ad_dynstat_advvel_max        =   2.1340121065596E-02
(PID.TID 0000.0001) %MON ad_dynstat_advvel_min        =  -1.9603760538564E-02
(PID.TID 0000.0001) %MON ad_dynstat_advvel_mean       =  -3.3699480989898E-05
(PID.TID 0000.0001) %MON ad_dynstat_advvel_sd         =   1.2376923811320E-03
(PID.TID 0000.0001) %MON ad_dynstat_advvel_del2       =   7.6805316816311E-05
(PID.TID 0000.0001) %MON ad_dynstat_adwvel_max        =   1.6288908020621E+00
(PID.TID 0000.0001) %MON ad_dynstat_adwvel_min        =  -1.1666057818722E+00
(PID.TID 0000.0001) %MON ad_dynstat_adwvel_mean       =   9.5506591249389E-05
(PID.TID 0000.0001) %MON ad_dynstat_adwvel_sd         =   5.0186582984684E-02
(PID.TID 0000.0001) %MON ad_dynstat_adwvel_del2       =   3.6989970936369E-03
(PID.TID 0000.0001) %MON ad_dynstat_adtheta_max       =   4.0671940224646E-03
(PID.TID 0000.0001) %MON ad_dynstat_adtheta_min       =  -4.1171393809875E-03
(PID.TID 0000.0001) %MON ad_dynstat_adtheta_mean      =   6.8175742607995E-07
(PID.TID 0000.0001) %MON ad_dynstat_adtheta_sd        =   2.5191411761631E-04
(PID.TID 0000.0001) %MON ad_dynstat_adtheta_del2      =   2.0030074156366E-05
(PID.TID 0000.0001) %MON ad_dynstat_adsalt_max        =   1.9253213676648E-02
(PID.TID 0000.0001) %MON ad_dynstat_adsalt_min        =  -1.8441651353801E-02
(PID.TID 0000.0001) %MON ad_dynstat_adsalt_mean       =  -3.9507715845249E-06
(PID.TID 0000.0001) %MON ad_dynstat_adsalt_sd         =   1.1513585693438E-03
(PID.TID 0000.0001) %MON ad_dynstat_adsalt_del2       =   8.6009573800211E-05
(PID.TID 0000.0001) %MON ad_dynstat_adsst_max         =   1.3069465010880E-04
(PID.TID 0000.0001) %MON ad_dynstat_adsst_min         =  -1.8803050496240E-04
(PID.TID 0000.0001) %MON ad_dynstat_adsst_mean        =  -6.2856159317673E-07
(PID.TID 0000.0001) %MON ad_dynstat_adsst_sd          =   1.2310637446958E-05
(PID.TID 0000.0001) %MON ad_dynstat_adsst_del2        =   1.2373859718647E-06
(PID.TID 0000.0001) %MON ad_dynstat_adsss_max         =   5.5362366717268E-04
(PID.TID 0000.0001) %MON ad_dynstat_adsss_min         =  -4.2231533608939E-04
(PID.TID 0000.0001) %MON ad_dynstat_adsss_mean        =   1.0938721012108E-06
(PID.TID 0000.0001) %MON ad_dynstat_adsss_sd          =   3.6328598191750E-05
(PID.TID 0000.0001) %MON ad_dynstat_adsss_del2        =   3.7027468074298E-06
(PID.TID 0000.0001) %MON ad_extforcing_adqnet_max     =   0.0000000000000E+00
(PID.TID 0000.0001) %MON ad_extforcing_adqnet_min     =   0.0000000000000E+00
(PID.TID 0000.0001) %MON ad_extforcing_adqnet_mean    =   0.0000000000000E+00
(PID.TID 0000.0001) %MON ad_extforcing_adqnet_sd      =   0.0000000000000E+00
(PID.TID 0000.0001) %MON ad_extforcing_adqnet_del2    =   0.0000000000000E+00
(PID.TID 0000.0001) %MON ad_extforcing_adempmr_max    =   2.9050056131285E+02
(PID.TID 0000.0001) %MON ad_extforcing_adempmr_min    =  -2.0662516322869E+02
(PID.TID 0000.0001) %MON ad_extforcing_adempmr_mean   =   4.7018894224414E-01
(PID.TID 0000.0001) %MON ad_extforcing_adempmr_sd     =   2.0934713257910E+01
(PID.TID 0000.0001) %MON ad_extforcing_adempmr_del2   =   2.0792502681304E+00
(PID.TID 0000.0001) %MON ad_extforcing_adfu_max       =   0.0000000000000E+00
(PID.TID 0000.0001) %MON ad_extforcing_adfu_min       =   0.0000000000000E+00
(PID.TID 0000.0001) %MON ad_extforcing_adfu_mean      =   0.0000000000000E+00
(PID.TID 0000.0001) %MON ad_extforcing_adfu_sd        =   0.0000000000000E+00
(PID.TID 0000.0001) %MON ad_extforcing_adfu_del2      =   0.0000000000000E+00
(PID.TID 0000.0001) %MON ad_extforcing_adfv_max       =   0.0000000000000E+00
(PID.TID 0000.0001) %MON ad_extforcing_adfv_min       =   0.0000000000000E+00
(PID.TID 0000.0001) %MON ad_extforcing_adfv_mean      =   0.0000000000000E+00
(PID.TID 0000.0001) %MON ad_extforcing_adfv_sd        =   0.0000000000000E+00
(PID.TID 0000.0001) %MON ad_extforcing_adfv_del2      =   0.0000000000000E+00
(PID.TID 0000.0001) %MON ad_advcfl_aduvel_max         =   7.8825260350221E-04
(PID.TID 0000.0001) %MON ad_advcfl_advvel_max         =   2.0730216343256E-03
(PID.TID 0000.0001) %MON ad_advcfl_adwvel_max         =   3.3605939591184E+02
(PID.TID 0000.0001) %MON ad_advcfl_adW_hf_max         =   4.7443679422848E+02
(PID.TID 0000.0001) // =======================================================
(PID.TID 0000.0001) // End MONITOR dynamic field statistics
(PID.TID 0000.0001) // =======================================================
 cg2d: Sum(rhs),rhsMax =  -1.08476162080651E-12  5.26909792602678E-08
(PID.TID 0000.0001) // =======================================================
(PID.TID 0000.0001) // Begin MONITOR dynamic field statistics
(PID.TID 0000.0001) // =======================================================
(PID.TID 0000.0001) %MON ad_time_tsnumber             =                    91
(PID.TID 0000.0001) %MON ad_time_secondsf             =   3.9312000000000E+06
(PID.TID 0000.0001) %MON ad_dynstat_adeta_max         =   5.3520095579359E-03
(PID.TID 0000.0001) %MON ad_dynstat_adeta_min         =  -8.0977674964495E-03
(PID.TID 0000.0001) %MON ad_dynstat_adeta_mean        =   1.3446565895317E-05
(PID.TID 0000.0001) %MON ad_dynstat_adeta_sd          =   5.1561292342595E-04
(PID.TID 0000.0001) %MON ad_dynstat_adeta_del2        =   4.3665764335802E-05
(PID.TID 0000.0001) %MON ad_dynstat_aduvel_max        =   7.5959060562593E-03
(PID.TID 0000.0001) %MON ad_dynstat_aduvel_min        =  -3.5463205446512E-03
(PID.TID 0000.0001) %MON ad_dynstat_aduvel_mean       =   1.1185582715573E-05
(PID.TID 0000.0001) %MON ad_dynstat_aduvel_sd         =   3.8203311547457E-04
(PID.TID 0000.0001) %MON ad_dynstat_aduvel_del2       =   1.9109154829017E-05
(PID.TID 0000.0001) %MON ad_dynstat_advvel_max        =   1.8205544606848E-02
(PID.TID 0000.0001) %MON ad_dynstat_advvel_min        =  -1.9367087103570E-02
(PID.TID 0000.0001) %MON ad_dynstat_advvel_mean       =  -2.7162682250889E-05
(PID.TID 0000.0001) %MON ad_dynstat_advvel_sd         =   1.1860584338291E-03
(PID.TID 0000.0001) %MON ad_dynstat_advvel_del2       =   7.4841471354677E-05
(PID.TID 0000.0001) %MON ad_dynstat_adwvel_max        =   1.6971392559043E+00
(PID.TID 0000.0001) %MON ad_dynstat_adwvel_min        =  -1.1708579862499E+00
(PID.TID 0000.0001) %MON ad_dynstat_adwvel_mean       =   9.6329451635024E-05
(PID.TID 0000.0001) %MON ad_dynstat_adwvel_sd         =   5.0556699954502E-02
(PID.TID 0000.0001) %MON ad_dynstat_adwvel_del2       =   3.6834989516766E-03
(PID.TID 0000.0001) %MON ad_dynstat_adtheta_max       =   4.2112736064238E-03
(PID.TID 0000.0001) %MON ad_dynstat_adtheta_min       =  -4.2810617193192E-03
(PID.TID 0000.0001) %MON ad_dynstat_adtheta_mean      =   7.1558226777510E-07
(PID.TID 0000.0001) %MON ad_dynstat_adtheta_sd        =   2.5188211657345E-04
(PID.TID 0000.0001) %MON ad_dynstat_adtheta_del2      =   1.9723700392697E-05
(PID.TID 0000.0001) %MON ad_dynstat_adsalt_max        =   1.9544052088780E-02
(PID.TID 0000.0001) %MON ad_dynstat_adsalt_min        =  -1.9020649439748E-02
(PID.TID 0000.0001) %MON ad_dynstat_adsalt_mean       =  -4.1283206181302E-06
(PID.TID 0000.0001) %MON ad_dynstat_adsalt_sd         =   1.1499122579901E-03
(PID.TID 0000.0001) %MON ad_dynstat_adsalt_del2       =   8.4514830287792E-05
(PID.TID 0000.0001) %MON ad_dynstat_adsst_max         =   1.3693432888397E-04
(PID.TID 0000.0001) %MON ad_dynstat_adsst_min         =  -1.9133401357518E-04
(PID.TID 0000.0001) %MON ad_dynstat_adsst_mean        =  -6.3537646290055E-07
(PID.TID 0000.0001) %MON ad_dynstat_adsst_sd          =   1.2577123137252E-05
(PID.TID 0000.0001) %MON ad_dynstat_adsst_del2        =   1.2579816397981E-06
(PID.TID 0000.0001) %MON ad_dynstat_adsss_max         =   5.6345125250798E-04
(PID.TID 0000.0001) %MON ad_dynstat_adsss_min         =  -4.4279186243962E-04
(PID.TID 0000.0001) %MON ad_dynstat_adsss_mean        =   1.1119392120522E-06
(PID.TID 0000.0001) %MON ad_dynstat_adsss_sd          =   3.7166477762822E-05
(PID.TID 0000.0001) %MON ad_dynstat_adsss_del2        =   3.7756402255984E-06
(PID.TID 0000.0001) %MON ad_extforcing_adqnet_max     =   0.0000000000000E+00
(PID.TID 0000.0001) %MON ad_extforcing_adqnet_min     =   0.0000000000000E+00
(PID.TID 0000.0001) %MON ad_extforcing_adqnet_mean    =   0.0000000000000E+00
(PID.TID 0000.0001) %MON ad_extforcing_adqnet_sd      =   0.0000000000000E+00
(PID.TID 0000.0001) %MON ad_extforcing_adqnet_del2    =   0.0000000000000E+00
(PID.TID 0000.0001) %MON ad_extforcing_adempmr_max    =   3.1197539130004E+02
(PID.TID 0000.0001) %MON ad_extforcing_adempmr_min    =  -2.2582363542314E+02
(PID.TID 0000.0001) %MON ad_extforcing_adempmr_mean   =   4.9175520787649E-01
(PID.TID 0000.0001) %MON ad_extforcing_adempmr_sd     =   2.2573618087555E+01
(PID.TID 0000.0001) %MON ad_extforcing_adempmr_del2   =   2.2389808494021E+00
(PID.TID 0000.0001) %MON ad_extforcing_adfu_max       =   0.0000000000000E+00
(PID.TID 0000.0001) %MON ad_extforcing_adfu_min       =   0.0000000000000E+00
(PID.TID 0000.0001) %MON ad_extforcing_adfu_mean      =   0.0000000000000E+00
(PID.TID 0000.0001) %MON ad_extforcing_adfu_sd        =   0.0000000000000E+00
(PID.TID 0000.0001) %MON ad_extforcing_adfu_del2      =   0.0000000000000E+00
(PID.TID 0000.0001) %MON ad_extforcing_adfv_max       =   0.0000000000000E+00
(PID.TID 0000.0001) %MON ad_extforcing_adfv_min       =   0.0000000000000E+00
(PID.TID 0000.0001) %MON ad_extforcing_adfv_mean      =   0.0000000000000E+00
(PID.TID 0000.0001) %MON ad_extforcing_adfv_sd        =   0.0000000000000E+00
(PID.TID 0000.0001) %MON ad_extforcing_adfv_del2      =   0.0000000000000E+00
(PID.TID 0000.0001) %MON ad_advcfl_aduvel_max         =   8.2096823467007E-04
(PID.TID 0000.0001) %MON ad_advcfl_advvel_max         =   1.8813572067449E-03
(PID.TID 0000.0001) %MON ad_advcfl_adwvel_max         =   3.4998879848155E+02
(PID.TID 0000.0001) %MON ad_advcfl_adW_hf_max         =   4.9410183315043E+02
(PID.TID 0000.0001) // =======================================================
(PID.TID 0000.0001) // End MONITOR dynamic field statistics
(PID.TID 0000.0001) // =======================================================
 cg2d: Sum(rhs),rhsMax =  -1.25370395488711E-12  5.26971420913576E-08
 myIter=  90
 ph-mnc in addummy param  T
 ph-mnc in addummy myiter  90
time,SST,SSS,fu,fv,Q,E-P,i0,i1,a,b =   3.7584E+06 -4.5734E-01  3.4436E+01 -1.5495E-02 -1.9617E-02  2.4175E+02  0.0000E+00     1     2  9.5000E-01  5.0000E-02
time,fu0,fu1,fu =   3.7584E+06 -3.5633E-02 -1.4435E-02 -1.5495E-02  9.500000000000000E-01  5.000000000000004E-02
 cg2d: Sum(rhs),rhsMax =   4.57495152872411E-12  7.92999023840161E+00
time,SST,SSS,fu,fv,Q,E-P,i0,i1,a,b =   3.8016E+06 -4.8218E-01  3.4431E+01 -1.5141E-02 -1.8956E-02  2.4132E+02  0.0000E+00     1     2  9.6667E-01  3.3333E-02
time,fu0,fu1,fu =   3.8016E+06 -3.5633E-02 -1.4435E-02 -1.5141E-02  9.666666666666667E-01  3.333333333333333E-02
 cg2d: Sum(rhs),rhsMax =   4.41620351399052E-12  7.90697486204084E+00
time,SST,SSS,fu,fv,Q,E-P,i0,i1,a,b =   3.8448E+06 -5.0702E-01  3.4426E+01 -1.4788E-02 -1.8296E-02  2.4090E+02  0.0000E+00     1     2  9.8333E-01  1.6667E-02
time,fu0,fu1,fu =   3.8448E+06 -3.5633E-02 -1.4435E-02 -1.4788E-02  9.833333333333333E-01  1.666666666666672E-02
 cg2d: Sum(rhs),rhsMax =   4.31862878791378E-12  7.89125112328966E+00
(PID.TID 0000.0001) // =======================================================
(PID.TID 0000.0001) // Begin MONITOR dynamic field statistics
(PID.TID 0000.0001) // =======================================================
(PID.TID 0000.0001) %MON ad_time_tsnumber             =                    90
(PID.TID 0000.0001) %MON ad_time_secondsf             =   3.8880000000000E+06
(PID.TID 0000.0001) %MON ad_dynstat_adeta_max         =   5.4573321386031E-03
(PID.TID 0000.0001) %MON ad_dynstat_adeta_min         =  -8.2310202450090E-03
(PID.TID 0000.0001) %MON ad_dynstat_adeta_mean        =   1.3497455797801E-05
(PID.TID 0000.0001) %MON ad_dynstat_adeta_sd          =   5.1857751628067E-04
(PID.TID 0000.0001) %MON ad_dynstat_adeta_del2        =   4.3734343392022E-05
(PID.TID 0000.0001) %MON ad_dynstat_aduvel_max        =   7.8483551228094E-03
(PID.TID 0000.0001) %MON ad_dynstat_aduvel_min        =  -3.5284725346079E-03
(PID.TID 0000.0001) %MON ad_dynstat_aduvel_mean       =   3.5102173221946E-06
(PID.TID 0000.0001) %MON ad_dynstat_aduvel_sd         =   3.8659337012081E-04
(PID.TID 0000.0001) %MON ad_dynstat_aduvel_del2       =   1.9626261649508E-05
(PID.TID 0000.0001) %MON ad_dynstat_advvel_max        =   1.5005607502605E-02
(PID.TID 0000.0001) %MON ad_dynstat_advvel_min        =  -1.8984347189317E-02
(PID.TID 0000.0001) %MON ad_dynstat_advvel_mean       =  -1.9986844026687E-05
(PID.TID 0000.0001) %MON ad_dynstat_advvel_sd         =   1.1440090248759E-03
(PID.TID 0000.0001) %MON ad_dynstat_advvel_del2       =   7.4747481699938E-05
(PID.TID 0000.0001) %MON ad_dynstat_adwvel_max        =   1.7617556482781E+00
(PID.TID 0000.0001) %MON ad_dynstat_adwvel_min        =  -1.1667299748304E+00
(PID.TID 0000.0001) %MON ad_dynstat_adwvel_mean       =   9.7760887344855E-05
(PID.TID 0000.0001) %MON ad_dynstat_adwvel_sd         =   5.0719975764744E-02
(PID.TID 0000.0001) %MON ad_dynstat_adwvel_del2       =   3.6488050655754E-03
(PID.TID 0000.0001) %MON ad_dynstat_adtheta_max       =   4.3457438133592E-03
(PID.TID 0000.0001) %MON ad_dynstat_adtheta_min       =  -4.4355016767312E-03
(PID.TID 0000.0001) %MON ad_dynstat_adtheta_mean      =   7.1725478411276E-07
(PID.TID 0000.0001) %MON ad_dynstat_adtheta_sd        =   2.5097466722979E-04
(PID.TID 0000.0001) %MON ad_dynstat_adtheta_del2      =   1.9336910765818E-05
(PID.TID 0000.0001) %MON ad_dynstat_adsalt_max        =   1.9768384126900E-02
(PID.TID 0000.0001) %MON ad_dynstat_adsalt_min        =  -1.9549017334183E-02
(PID.TID 0000.0001) %MON ad_dynstat_adsalt_mean       =  -4.1438438567291E-06
(PID.TID 0000.0001) %MON ad_dynstat_adsalt_sd         =   1.1444694724718E-03
(PID.TID 0000.0001) %MON ad_dynstat_adsalt_del2       =   8.2666271958564E-05
(PID.TID 0000.0001) %MON ad_dynstat_adsst_max         =   1.4298649981818E-04
(PID.TID 0000.0001) %MON ad_dynstat_adsst_min         =  -1.9389680747180E-04
(PID.TID 0000.0001) %MON ad_dynstat_adsst_mean        =  -6.5595260458147E-07
(PID.TID 0000.0001) %MON ad_dynstat_adsst_sd          =   1.2801214137104E-05
(PID.TID 0000.0001) %MON ad_dynstat_adsst_del2        =   1.2779002366072E-06
(PID.TID 0000.0001) %MON ad_dynstat_adsss_max         =   5.7103606995011E-04
(PID.TID 0000.0001) %MON ad_dynstat_adsss_min         =  -4.6279580378346E-04
(PID.TID 0000.0001) %MON ad_dynstat_adsss_mean        =   1.1667400135609E-06
(PID.TID 0000.0001) %MON ad_dynstat_adsss_sd          =   3.7885242568111E-05
(PID.TID 0000.0001) %MON ad_dynstat_adsss_del2        =   3.8420571320728E-06
(PID.TID 0000.0001) %MON ad_extforcing_adqnet_max     =   0.0000000000000E+00
(PID.TID 0000.0001) %MON ad_extforcing_adqnet_min     =   0.0000000000000E+00
(PID.TID 0000.0001) %MON ad_extforcing_adqnet_mean    =   0.0000000000000E+00
(PID.TID 0000.0001) %MON ad_extforcing_adqnet_sd      =   0.0000000000000E+00
(PID.TID 0000.0001) %MON ad_extforcing_adqnet_del2    =   0.0000000000000E+00
(PID.TID 0000.0001) %MON ad_extforcing_adempmr_max    =   3.3368216216325E+02
(PID.TID 0000.0001) %MON ad_extforcing_adempmr_min    =  -2.4575844321870E+02
(PID.TID 0000.0001) %MON ad_extforcing_adempmr_mean   =   5.1382638517084E-01
(PID.TID 0000.0001) %MON ad_extforcing_adempmr_sd     =   2.4237515807887E+01
(PID.TID 0000.0001) %MON ad_extforcing_adempmr_del2   =   2.3996915210313E+00
(PID.TID 0000.0001) %MON ad_extforcing_adfu_max       =   0.0000000000000E+00
(PID.TID 0000.0001) %MON ad_extforcing_adfu_min       =   0.0000000000000E+00
(PID.TID 0000.0001) %MON ad_extforcing_adfu_mean      =   0.0000000000000E+00
(PID.TID 0000.0001) %MON ad_extforcing_adfu_sd        =   0.0000000000000E+00
(PID.TID 0000.0001) %MON ad_extforcing_adfu_del2      =   0.0000000000000E+00
(PID.TID 0000.0001) %MON ad_extforcing_adfv_max       =   0.0000000000000E+00
(PID.TID 0000.0001) %MON ad_extforcing_adfv_min       =   0.0000000000000E+00
(PID.TID 0000.0001) %MON ad_extforcing_adfv_mean      =   0.0000000000000E+00
(PID.TID 0000.0001) %MON ad_extforcing_adfv_sd        =   0.0000000000000E+00
(PID.TID 0000.0001) %MON ad_extforcing_adfv_del2      =   0.0000000000000E+00
(PID.TID 0000.0001) %MON ad_advcfl_aduvel_max         =   8.4825301978652E-04
(PID.TID 0000.0001) %MON ad_advcfl_advvel_max         =   1.8441770932804E-03
(PID.TID 0000.0001) %MON ad_advcfl_adwvel_max         =   3.6307527494850E+02
(PID.TID 0000.0001) %MON ad_advcfl_adW_hf_max         =   5.1257685875083E+02
(PID.TID 0000.0001) // =======================================================
(PID.TID 0000.0001) // End MONITOR dynamic field statistics
(PID.TID 0000.0001) // =======================================================
 cg2d: Sum(rhs),rhsMax =  -1.36291520604070E-12  5.25528802699445E-08
(PID.TID 0000.0001) // =======================================================
(PID.TID 0000.0001) // Begin MONITOR dynamic field statistics
(PID.TID 0000.0001) // =======================================================
(PID.TID 0000.0001) %MON ad_time_tsnumber             =                    89
(PID.TID 0000.0001) %MON ad_time_secondsf             =   3.8448000000000E+06
(PID.TID 0000.0001) %MON ad_dynstat_adeta_max         =   5.5515068819967E-03
(PID.TID 0000.0001) %MON ad_dynstat_adeta_min         =  -8.3542471956204E-03
(PID.TID 0000.0001) %MON ad_dynstat_adeta_mean        =   1.3568180697546E-05
(PID.TID 0000.0001) %MON ad_dynstat_adeta_sd          =   5.2035248827217E-04
(PID.TID 0000.0001) %MON ad_dynstat_adeta_del2        =   4.3776433585235E-05
(PID.TID 0000.0001) %MON ad_dynstat_aduvel_max        =   8.0475406461425E-03
(PID.TID 0000.0001) %MON ad_dynstat_aduvel_min        =  -3.8817738624955E-03
(PID.TID 0000.0001) %MON ad_dynstat_aduvel_mean       =   2.6959858851714E-06
(PID.TID 0000.0001) %MON ad_dynstat_aduvel_sd         =   3.8588934364327E-04
(PID.TID 0000.0001) %MON ad_dynstat_aduvel_del2       =   1.9830117042342E-05
(PID.TID 0000.0001) %MON ad_dynstat_advvel_max        =   1.1832707782281E-02
(PID.TID 0000.0001) %MON ad_dynstat_advvel_min        =  -1.8451940720414E-02
(PID.TID 0000.0001) %MON ad_dynstat_advvel_mean       =  -1.2345560925313E-05
(PID.TID 0000.0001) %MON ad_dynstat_advvel_sd         =   1.1123348078833E-03
(PID.TID 0000.0001) %MON ad_dynstat_advvel_del2       =   7.6207237512114E-05
(PID.TID 0000.0001) %MON ad_dynstat_adwvel_max        =   1.8224707382242E+00
(PID.TID 0000.0001) %MON ad_dynstat_adwvel_min        =  -1.1578430841251E+00
(PID.TID 0000.0001) %MON ad_dynstat_adwvel_mean       =   9.9603746213575E-05
(PID.TID 0000.0001) %MON ad_dynstat_adwvel_sd         =   5.0687605861011E-02
(PID.TID 0000.0001) %MON ad_dynstat_adwvel_del2       =   3.5966539021693E-03
(PID.TID 0000.0001) %MON ad_dynstat_adtheta_max       =   4.4701809531592E-03
(PID.TID 0000.0001) %MON ad_dynstat_adtheta_min       =  -4.5798110960739E-03
(PID.TID 0000.0001) %MON ad_dynstat_adtheta_mean      =   7.7537792700000E-07
(PID.TID 0000.0001) %MON ad_dynstat_adtheta_sd        =   2.4930272645082E-04
(PID.TID 0000.0001) %MON ad_dynstat_adtheta_del2      =   1.8886954666385E-05
(PID.TID 0000.0001) %MON ad_dynstat_adsalt_max        =   1.9929126944512E-02
(PID.TID 0000.0001) %MON ad_dynstat_adsalt_min        =  -2.0025241834930E-02
(PID.TID 0000.0001) %MON ad_dynstat_adsalt_mean       =  -4.4392101031443E-06
(PID.TID 0000.0001) %MON ad_dynstat_adsalt_sd         =   1.1355660028841E-03
(PID.TID 0000.0001) %MON ad_dynstat_adsalt_del2       =   8.0552930315155E-05
(PID.TID 0000.0001) %MON ad_dynstat_adsst_max         =   1.4884067935773E-04
(PID.TID 0000.0001) %MON ad_dynstat_adsst_min         =  -1.9571103761541E-04
(PID.TID 0000.0001) %MON ad_dynstat_adsst_mean        =  -6.4600594372113E-07
(PID.TID 0000.0001) %MON ad_dynstat_adsst_sd          =   1.2970760755276E-05
(PID.TID 0000.0001) %MON ad_dynstat_adsst_del2        =   1.2842638521105E-06
(PID.TID 0000.0001) %MON ad_dynstat_adsss_max         =   5.7635117836816E-04
(PID.TID 0000.0001) %MON ad_dynstat_adsss_min         =  -4.8229764026986E-04
(PID.TID 0000.0001) %MON ad_dynstat_adsss_mean        =   1.1421485940486E-06
(PID.TID 0000.0001) %MON ad_dynstat_adsss_sd          =   3.8451036740875E-05
(PID.TID 0000.0001) %MON ad_dynstat_adsss_del2        =   3.8771524436366E-06
(PID.TID 0000.0001) %MON ad_extforcing_adqnet_max     =   0.0000000000000E+00
(PID.TID 0000.0001) %MON ad_extforcing_adqnet_min     =   0.0000000000000E+00
(PID.TID 0000.0001) %MON ad_extforcing_adqnet_mean    =   0.0000000000000E+00
(PID.TID 0000.0001) %MON ad_extforcing_adqnet_sd      =   0.0000000000000E+00
(PID.TID 0000.0001) %MON ad_extforcing_adqnet_del2    =   0.0000000000000E+00
(PID.TID 0000.0001) %MON ad_extforcing_adempmr_max    =   3.5553798577075E+02
(PID.TID 0000.0001) %MON ad_extforcing_adempmr_min    =  -2.6640304825712E+02
(PID.TID 0000.0001) %MON ad_extforcing_adempmr_mean   =   5.3631895177020E-01
(PID.TID 0000.0001) %MON ad_extforcing_adempmr_sd     =   2.5920221288881E+01
(PID.TID 0000.0001) %MON ad_extforcing_adempmr_del2   =   2.5608502210870E+00
(PID.TID 0000.0001) %MON ad_extforcing_adfu_max       =   0.0000000000000E+00
(PID.TID 0000.0001) %MON ad_extforcing_adfu_min       =   0.0000000000000E+00
(PID.TID 0000.0001) %MON ad_extforcing_adfu_mean      =   0.0000000000000E+00
(PID.TID 0000.0001) %MON ad_extforcing_adfu_sd        =   0.0000000000000E+00
(PID.TID 0000.0001) %MON ad_extforcing_adfu_del2      =   0.0000000000000E+00
(PID.TID 0000.0001) %MON ad_extforcing_adfv_max       =   0.0000000000000E+00
(PID.TID 0000.0001) %MON ad_extforcing_adfv_min       =   0.0000000000000E+00
(PID.TID 0000.0001) %MON ad_extforcing_adfv_mean      =   0.0000000000000E+00
(PID.TID 0000.0001) %MON ad_extforcing_adfv_sd        =   0.0000000000000E+00
(PID.TID 0000.0001) %MON ad_extforcing_adfv_del2      =   0.0000000000000E+00
(PID.TID 0000.0001) %MON ad_advcfl_aduvel_max         =   8.6978106216243E-04
(PID.TID 0000.0001) %MON ad_advcfl_advvel_max         =   1.7924580742130E-03
(PID.TID 0000.0001) %MON ad_advcfl_adwvel_max         =   3.7525844210343E+02
(PID.TID 0000.0001) %MON ad_advcfl_adW_hf_max         =   5.2977662414602E+02
(PID.TID 0000.0001) // =======================================================
(PID.TID 0000.0001) // End MONITOR dynamic field statistics
(PID.TID 0000.0001) // =======================================================
 cg2d: Sum(rhs),rhsMax =  -1.36759657418106E-12  5.32704154218794E-08
(PID.TID 0000.0001) // =======================================================
(PID.TID 0000.0001) // Begin MONITOR dynamic field statistics
(PID.TID 0000.0001) // =======================================================
(PID.TID 0000.0001) %MON ad_time_tsnumber             =                    88
(PID.TID 0000.0001) %MON ad_time_secondsf             =   3.8016000000000E+06
(PID.TID 0000.0001) %MON ad_dynstat_adeta_max         =   5.6339225755953E-03
(PID.TID 0000.0001) %MON ad_dynstat_adeta_min         =  -8.4671886958272E-03
(PID.TID 0000.0001) %MON ad_dynstat_adeta_mean        =   1.3571726309373E-05
(PID.TID 0000.0001) %MON ad_dynstat_adeta_sd          =   5.2088101062401E-04
(PID.TID 0000.0001) %MON ad_dynstat_adeta_del2        =   4.3615635804817E-05
(PID.TID 0000.0001) %MON ad_dynstat_aduvel_max        =   8.1906083498854E-03
(PID.TID 0000.0001) %MON ad_dynstat_aduvel_min        =  -4.2780843844916E-03
(PID.TID 0000.0001) %MON ad_dynstat_aduvel_mean       =  -2.2691828623725E-06
(PID.TID 0000.0001) %MON ad_dynstat_aduvel_sd         =   3.8814234071066E-04
(PID.TID 0000.0001) %MON ad_dynstat_aduvel_del2       =   2.0154244959818E-05
(PID.TID 0000.0001) %MON ad_dynstat_advvel_max        =   9.1918671676232E-03
(PID.TID 0000.0001) %MON ad_dynstat_advvel_min        =  -1.7768307421499E-02
(PID.TID 0000.0001) %MON ad_dynstat_advvel_mean       =  -4.2545890639877E-06
(PID.TID 0000.0001) %MON ad_dynstat_advvel_sd         =   1.0915522533789E-03
(PID.TID 0000.0001) %MON ad_dynstat_advvel_del2       =   7.9912685973927E-05
(PID.TID 0000.0001) %MON ad_dynstat_adwvel_max        =   1.8790645021536E+00
(PID.TID 0000.0001) %MON ad_dynstat_adwvel_min        =  -1.1440188089468E+00
(PID.TID 0000.0001) %MON ad_dynstat_adwvel_mean       =   1.0180592116277E-04
(PID.TID 0000.0001) %MON ad_dynstat_adwvel_sd         =   5.0475452458123E-02
(PID.TID 0000.0001) %MON ad_dynstat_adwvel_del2       =   3.5305429750846E-03
(PID.TID 0000.0001) %MON ad_dynstat_adtheta_max       =   4.5842704760482E-03
(PID.TID 0000.0001) %MON ad_dynstat_adtheta_min       =  -4.7134618073360E-03
(PID.TID 0000.0001) %MON ad_dynstat_adtheta_mean      =   8.0063478280127E-07
(PID.TID 0000.0001) %MON ad_dynstat_adtheta_sd        =   2.4698857823227E-04
(PID.TID 0000.0001) %MON ad_dynstat_adtheta_del2      =   1.8414708358759E-05
(PID.TID 0000.0001) %MON ad_dynstat_adsalt_max        =   2.0030163661033E-02
(PID.TID 0000.0001) %MON ad_dynstat_adsalt_min        =  -2.0448385619710E-02
(PID.TID 0000.0001) %MON ad_dynstat_adsalt_mean       =  -4.5691829750109E-06
(PID.TID 0000.0001) %MON ad_dynstat_adsalt_sd         =   1.1237985374755E-03
(PID.TID 0000.0001) %MON ad_dynstat_adsalt_del2       =   7.8376635071413E-05
(PID.TID 0000.0001) %MON ad_dynstat_adsst_max         =   1.5448530591307E-04
(PID.TID 0000.0001) %MON ad_dynstat_adsst_min         =  -1.9677761534564E-04
(PID.TID 0000.0001) %MON ad_dynstat_adsst_mean        =  -6.4714290487004E-07
(PID.TID 0000.0001) %MON ad_dynstat_adsst_sd          =   1.3096264518820E-05
(PID.TID 0000.0001) %MON ad_dynstat_adsst_del2        =   1.2890238773133E-06
(PID.TID 0000.0001) %MON ad_dynstat_adsss_max         =   5.7939609948068E-04
(PID.TID 0000.0001) %MON ad_dynstat_adsss_min         =  -5.0126349976481E-04
(PID.TID 0000.0001) %MON ad_dynstat_adsss_mean        =   1.1467326757975E-06
(PID.TID 0000.0001) %MON ad_dynstat_adsss_sd          =   3.8893744803299E-05
(PID.TID 0000.0001) %MON ad_dynstat_adsss_del2        =   3.9061417217799E-06
(PID.TID 0000.0001) %MON ad_extforcing_adqnet_max     =   0.0000000000000E+00
(PID.TID 0000.0001) %MON ad_extforcing_adqnet_min     =   0.0000000000000E+00
(PID.TID 0000.0001) %MON ad_extforcing_adqnet_mean    =   0.0000000000000E+00
(PID.TID 0000.0001) %MON ad_extforcing_adqnet_sd      =   0.0000000000000E+00
(PID.TID 0000.0001) %MON ad_extforcing_adqnet_del2    =   0.0000000000000E+00
(PID.TID 0000.0001) %MON ad_extforcing_adempmr_max    =   3.7746097051103E+02
(PID.TID 0000.0001) %MON ad_extforcing_adempmr_min    =  -2.8772945136564E+02
(PID.TID 0000.0001) %MON ad_extforcing_adempmr_mean   =   5.5897219723744E-01
(PID.TID 0000.0001) %MON ad_extforcing_adempmr_sd     =   2.7614570993555E+01
(PID.TID 0000.0001) %MON ad_extforcing_adempmr_del2   =   2.7216901946356E+00
(PID.TID 0000.0001) %MON ad_extforcing_adfu_max       =   0.0000000000000E+00
(PID.TID 0000.0001) %MON ad_extforcing_adfu_min       =   0.0000000000000E+00
(PID.TID 0000.0001) %MON ad_extforcing_adfu_mean      =   0.0000000000000E+00
(PID.TID 0000.0001) %MON ad_extforcing_adfu_sd        =   0.0000000000000E+00
(PID.TID 0000.0001) %MON ad_extforcing_adfu_del2      =   0.0000000000000E+00
(PID.TID 0000.0001) %MON ad_extforcing_adfv_max       =   0.0000000000000E+00
(PID.TID 0000.0001) %MON ad_extforcing_adfv_min       =   0.0000000000000E+00
(PID.TID 0000.0001) %MON ad_extforcing_adfv_mean      =   0.0000000000000E+00
(PID.TID 0000.0001) %MON ad_extforcing_adfv_sd        =   0.0000000000000E+00
(PID.TID 0000.0001) %MON ad_extforcing_adfv_del2      =   0.0000000000000E+00
(PID.TID 0000.0001) %MON ad_advcfl_aduvel_max         =   8.8524387058978E-04
(PID.TID 0000.0001) %MON ad_advcfl_advvel_max         =   1.7260485813035E-03
(PID.TID 0000.0001) %MON ad_advcfl_adwvel_max         =   3.8649183357413E+02
(PID.TID 0000.0001) %MON ad_advcfl_adW_hf_max         =   5.4563552975171E+02
(PID.TID 0000.0001) // =======================================================
(PID.TID 0000.0001) // End MONITOR dynamic field statistics
(PID.TID 0000.0001) // =======================================================
 cg2d: Sum(rhs),rhsMax =  -1.20594896915738E-12  5.42096323402477E-08
time,SST,SSS,fu,fv,Q,E-P,i0,i1,a,b =   3.6288E+06 -3.8283E-01  3.4450E+01 -1.6555E-02 -2.1598E-02  2.4301E+02  0.0000E+00     1     2  9.0000E-01  1.0000E-01
time,fu0,fu1,fu =   3.6288E+06 -3.5633E-02 -1.4435E-02 -1.6555E-02  9.000000000000000E-01  9.999999999999998E-02
 cg2d: Sum(rhs),rhsMax =   3.56802087875252E-12  8.02199626746557E+00
time,SST,SSS,fu,fv,Q,E-P,i0,i1,a,b =   3.6720E+06 -4.0767E-01  3.4446E+01 -1.6201E-02 -2.0937E-02  2.4259E+02  0.0000E+00     1     2  9.1667E-01  8.3333E-02
time,fu0,fu1,fu =   3.6720E+06 -3.5633E-02 -1.4435E-02 -1.6201E-02  9.166666666666666E-01  8.333333333333337E-02
 cg2d: Sum(rhs),rhsMax =   3.96899180188370E-12  7.98965232758869E+00
time,SST,SSS,fu,fv,Q,E-P,i0,i1,a,b =   3.7152E+06 -4.3250E-01  3.4441E+01 -1.5848E-02 -2.0277E-02  2.4217E+02  0.0000E+00     1     2  9.3333E-01  6.6667E-02
time,fu0,fu1,fu =   3.7152E+06 -3.5633E-02 -1.4435E-02 -1.5848E-02  9.333333333333333E-01  6.666666666666665E-02
 cg2d: Sum(rhs),rhsMax =   3.77346764945941E-12  7.95826434668644E+00
(PID.TID 0000.0001) // =======================================================
(PID.TID 0000.0001) // Begin MONITOR dynamic field statistics
(PID.TID 0000.0001) // =======================================================
(PID.TID 0000.0001) %MON ad_time_tsnumber             =                    87
(PID.TID 0000.0001) %MON ad_time_secondsf             =   3.7584000000000E+06
(PID.TID 0000.0001) %MON ad_dynstat_adeta_max         =   5.7041653879529E-03
(PID.TID 0000.0001) %MON ad_dynstat_adeta_min         =  -8.5692729554059E-03
(PID.TID 0000.0001) %MON ad_dynstat_adeta_mean        =   1.3539332760409E-05
(PID.TID 0000.0001) %MON ad_dynstat_adeta_sd          =   5.2025708622890E-04
(PID.TID 0000.0001) %MON ad_dynstat_adeta_del2        =   4.3272898880241E-05
(PID.TID 0000.0001) %MON ad_dynstat_aduvel_max        =   8.2749276679112E-03
(PID.TID 0000.0001) %MON ad_dynstat_aduvel_min        =  -4.6599228212164E-03
(PID.TID 0000.0001) %MON ad_dynstat_aduvel_mean       =  -7.6580108015997E-06
(PID.TID 0000.0001) %MON ad_dynstat_aduvel_sd         =   3.9114001280108E-04
(PID.TID 0000.0001) %MON ad_dynstat_aduvel_del2       =   2.0441850447214E-05
(PID.TID 0000.0001) %MON ad_dynstat_advvel_max        =   9.7159461711647E-03
(PID.TID 0000.0001) %MON ad_dynstat_advvel_min        =  -1.6933914660570E-02
(PID.TID 0000.0001) %MON ad_dynstat_advvel_mean       =   4.1413352274359E-06
(PID.TID 0000.0001) %MON ad_dynstat_advvel_sd         =   1.0817201307789E-03
(PID.TID 0000.0001) %MON ad_dynstat_advvel_del2       =   8.5215893311959E-05
(PID.TID 0000.0001) %MON ad_dynstat_adwvel_max        =   1.9313639876183E+00
(PID.TID 0000.0001) %MON ad_dynstat_adwvel_min        =  -1.1250723821449E+00
(PID.TID 0000.0001) %MON ad_dynstat_adwvel_mean       =   1.0447187436080E-04
(PID.TID 0000.0001) %MON ad_dynstat_adwvel_sd         =   5.0097872496299E-02
(PID.TID 0000.0001) %MON ad_dynstat_adwvel_del2       =   3.4522072712706E-03
(PID.TID 0000.0001) %MON ad_dynstat_adtheta_max       =   4.6878026784613E-03
(PID.TID 0000.0001) %MON ad_dynstat_adtheta_min       =  -4.8360432465859E-03
(PID.TID 0000.0001) %MON ad_dynstat_adtheta_mean      =   8.2245617331663E-07
(PID.TID 0000.0001) %MON ad_dynstat_adtheta_sd        =   2.4415305263851E-04
(PID.TID 0000.0001) %MON ad_dynstat_adtheta_del2      =   1.7912666700053E-05
(PID.TID 0000.0001) %MON ad_dynstat_adsalt_max        =   2.0076264118574E-02
(PID.TID 0000.0001) %MON ad_dynstat_adsalt_min        =  -2.0818061254931E-02
(PID.TID 0000.0001) %MON ad_dynstat_adsalt_mean       =  -4.6805048285502E-06
(PID.TID 0000.0001) %MON ad_dynstat_adsalt_sd         =   1.1097530173845E-03
(PID.TID 0000.0001) %MON ad_dynstat_adsalt_del2       =   7.6097439197561E-05
(PID.TID 0000.0001) %MON ad_dynstat_adsst_max         =   1.5990462854781E-04
(PID.TID 0000.0001) %MON ad_dynstat_adsst_min         =  -1.9710658121500E-04
(PID.TID 0000.0001) %MON ad_dynstat_adsst_mean        =  -6.4690406962094E-07
(PID.TID 0000.0001) %MON ad_dynstat_adsst_sd          =   1.3185240369226E-05
(PID.TID 0000.0001) %MON ad_dynstat_adsst_del2        =   1.2898946490084E-06
(PID.TID 0000.0001) %MON ad_dynstat_adsss_max         =   5.8019798744081E-04
(PID.TID 0000.0001) %MON ad_dynstat_adsss_min         =  -5.1964561140216E-04
(PID.TID 0000.0001) %MON ad_dynstat_adsss_mean        =   1.1476588162617E-06
(PID.TID 0000.0001) %MON ad_dynstat_adsss_sd          =   3.9232211744392E-05
(PID.TID 0000.0001) %MON ad_dynstat_adsss_del2        =   3.9238718945427E-06
(PID.TID 0000.0001) %MON ad_extforcing_adqnet_max     =   0.0000000000000E+00
(PID.TID 0000.0001) %MON ad_extforcing_adqnet_min     =   0.0000000000000E+00
(PID.TID 0000.0001) %MON ad_extforcing_adqnet_mean    =   0.0000000000000E+00
(PID.TID 0000.0001) %MON ad_extforcing_adqnet_sd      =   0.0000000000000E+00
(PID.TID 0000.0001) %MON ad_extforcing_adqnet_del2    =   0.0000000000000E+00
(PID.TID 0000.0001) %MON ad_extforcing_adempmr_max    =   3.9937091409654E+02
(PID.TID 0000.0001) %MON ad_extforcing_adempmr_min    =  -3.0970824054476E+02
(PID.TID 0000.0001) %MON ad_extforcing_adempmr_mean   =   5.8162882804084E-01
(PID.TID 0000.0001) %MON ad_extforcing_adempmr_sd     =   2.9315676193364E+01
(PID.TID 0000.0001) %MON ad_extforcing_adempmr_del2   =   2.8816967701715E+00
(PID.TID 0000.0001) %MON ad_extforcing_adfu_max       =   0.0000000000000E+00
(PID.TID 0000.0001) %MON ad_extforcing_adfu_min       =   0.0000000000000E+00
(PID.TID 0000.0001) %MON ad_extforcing_adfu_mean      =   0.0000000000000E+00
(PID.TID 0000.0001) %MON ad_extforcing_adfu_sd        =   0.0000000000000E+00
(PID.TID 0000.0001) %MON ad_extforcing_adfu_del2      =   0.0000000000000E+00
(PID.TID 0000.0001) %MON ad_extforcing_adfv_max       =   0.0000000000000E+00
(PID.TID 0000.0001) %MON ad_extforcing_adfv_min       =   0.0000000000000E+00
(PID.TID 0000.0001) %MON ad_extforcing_adfv_mean      =   0.0000000000000E+00
(PID.TID 0000.0001) %MON ad_extforcing_adfv_sd        =   0.0000000000000E+00
(PID.TID 0000.0001) %MON ad_extforcing_adfv_del2      =   0.0000000000000E+00
(PID.TID 0000.0001) %MON ad_advcfl_aduvel_max         =   8.9435713254373E-04
(PID.TID 0000.0001) %MON ad_advcfl_advvel_max         =   1.6449940156047E-03
(PID.TID 0000.0001) %MON ad_advcfl_adwvel_max         =   3.9674165435012E+02
(PID.TID 0000.0001) %MON ad_advcfl_adW_hf_max         =   5.6010586496487E+02
(PID.TID 0000.0001) // =======================================================
(PID.TID 0000.0001) // End MONITOR dynamic field statistics
(PID.TID 0000.0001) // =======================================================
 cg2d: Sum(rhs),rhsMax =  -1.02834754600600E-12  5.51089608429588E-08
(PID.TID 0000.0001) // =======================================================
(PID.TID 0000.0001) // Begin MONITOR dynamic field statistics
(PID.TID 0000.0001) // =======================================================
(PID.TID 0000.0001) %MON ad_time_tsnumber             =                    86
(PID.TID 0000.0001) %MON ad_time_secondsf             =   3.7152000000000E+06
(PID.TID 0000.0001) %MON ad_dynstat_adeta_max         =   5.7620874235365E-03
(PID.TID 0000.0001) %MON ad_dynstat_adeta_min         =  -8.6597408265509E-03
(PID.TID 0000.0001) %MON ad_dynstat_adeta_mean        =   1.3472853079706E-05
(PID.TID 0000.0001) %MON ad_dynstat_adeta_sd          =   5.1860596913468E-04
(PID.TID 0000.0001) %MON ad_dynstat_adeta_del2        =   4.2764882626943E-05
(PID.TID 0000.0001) %MON ad_dynstat_aduvel_max        =   8.2982036261251E-03
(PID.TID 0000.0001) %MON ad_dynstat_aduvel_min        =  -5.0209274981646E-03
(PID.TID 0000.0001) %MON ad_dynstat_aduvel_mean       =  -1.3416154831652E-05
(PID.TID 0000.0001) %MON ad_dynstat_aduvel_sd         =   3.9517355535138E-04
(PID.TID 0000.0001) %MON ad_dynstat_aduvel_del2       =   2.0696627800891E-05
(PID.TID 0000.0001) %MON ad_dynstat_advvel_max        =   1.1024220048247E-02
(PID.TID 0000.0001) %MON ad_dynstat_advvel_min        =  -1.5951181606150E-02
(PID.TID 0000.0001) %MON ad_dynstat_advvel_mean       =   1.2715954924349E-05
(PID.TID 0000.0001) %MON ad_dynstat_advvel_sd         =   1.0823419998288E-03
(PID.TID 0000.0001) %MON ad_dynstat_advvel_del2       =   9.0377160181198E-05
(PID.TID 0000.0001) %MON ad_dynstat_adwvel_max        =   1.9792415853487E+00
(PID.TID 0000.0001) %MON ad_dynstat_adwvel_min        =  -1.1221264059877E+00
(PID.TID 0000.0001) %MON ad_dynstat_adwvel_mean       =   1.0758919072638E-04
(PID.TID 0000.0001) %MON ad_dynstat_adwvel_sd         =   4.9569869169732E-02
(PID.TID 0000.0001) %MON ad_dynstat_adwvel_del2       =   3.3624315588719E-03
(PID.TID 0000.0001) %MON ad_dynstat_adtheta_max       =   4.7806721807696E-03
(PID.TID 0000.0001) %MON ad_dynstat_adtheta_min       =  -4.9472610513013E-03
(PID.TID 0000.0001) %MON ad_dynstat_adtheta_mean      =   8.4051697852424E-07
(PID.TID 0000.0001) %MON ad_dynstat_adtheta_sd        =   2.4091983315691E-04
(PID.TID 0000.0001) %MON ad_dynstat_adtheta_del2      =   1.7374604214440E-05
(PID.TID 0000.0001) %MON ad_dynstat_adsalt_max        =   2.0072946252379E-02
(PID.TID 0000.0001) %MON ad_dynstat_adsalt_min        =  -2.1134422705081E-02
(PID.TID 0000.0001) %MON ad_dynstat_adsalt_mean       =  -4.7718553141418E-06
(PID.TID 0000.0001) %MON ad_dynstat_adsalt_sd         =   1.0940277941284E-03
(PID.TID 0000.0001) %MON ad_dynstat_adsalt_del2       =   7.3696374325121E-05
(PID.TID 0000.0001) %MON ad_dynstat_adsst_max         =   1.6507813633158E-04
(PID.TID 0000.0001) %MON ad_dynstat_adsst_min         =  -1.9671659926114E-04
(PID.TID 0000.0001) %MON ad_dynstat_adsst_mean        =  -6.4722982910418E-07
(PID.TID 0000.0001) %MON ad_dynstat_adsst_sd          =   1.3265058505717E-05
(PID.TID 0000.0001) %MON ad_dynstat_adsst_del2        =   1.2883469169027E-06
(PID.TID 0000.0001) %MON ad_dynstat_adsss_max         =   5.7881013257174E-04
(PID.TID 0000.0001) %MON ad_dynstat_adsss_min         =  -5.3738038305602E-04
(PID.TID 0000.0001) %MON ad_dynstat_adsss_mean        =   1.1501519885069E-06
(PID.TID 0000.0001) %MON ad_dynstat_adsss_sd          =   3.9544646216798E-05
(PID.TID 0000.0001) %MON ad_dynstat_adsss_del2        =   3.9350317641249E-06
(PID.TID 0000.0001) %MON ad_extforcing_adqnet_max     =   0.0000000000000E+00
(PID.TID 0000.0001) %MON ad_extforcing_adqnet_min     =   0.0000000000000E+00
(PID.TID 0000.0001) %MON ad_extforcing_adqnet_mean    =   0.0000000000000E+00
(PID.TID 0000.0001) %MON ad_extforcing_adqnet_sd      =   0.0000000000000E+00
(PID.TID 0000.0001) %MON ad_extforcing_adqnet_del2    =   0.0000000000000E+00
(PID.TID 0000.0001) %MON ad_extforcing_adempmr_max    =   4.2119000562509E+02
(PID.TID 0000.0001) %MON ad_extforcing_adempmr_min    =  -3.3230835042981E+02
(PID.TID 0000.0001) %MON ad_extforcing_adempmr_mean   =   6.0452547036791E-01
(PID.TID 0000.0001) %MON ad_extforcing_adempmr_sd     =   3.1022158567723E+01
(PID.TID 0000.0001) %MON ad_extforcing_adempmr_del2   =   3.0405773581627E+00
(PID.TID 0000.0001) %MON ad_extforcing_adfu_max       =   0.0000000000000E+00
(PID.TID 0000.0001) %MON ad_extforcing_adfu_min       =   0.0000000000000E+00
(PID.TID 0000.0001) %MON ad_extforcing_adfu_mean      =   0.0000000000000E+00
(PID.TID 0000.0001) %MON ad_extforcing_adfu_sd        =   0.0000000000000E+00
(PID.TID 0000.0001) %MON ad_extforcing_adfu_del2      =   0.0000000000000E+00
(PID.TID 0000.0001) %MON ad_extforcing_adfv_max       =   0.0000000000000E+00
(PID.TID 0000.0001) %MON ad_extforcing_adfv_min       =   0.0000000000000E+00
(PID.TID 0000.0001) %MON ad_extforcing_adfv_mean      =   0.0000000000000E+00
(PID.TID 0000.0001) %MON ad_extforcing_adfv_sd        =   0.0000000000000E+00
(PID.TID 0000.0001) %MON ad_extforcing_adfv_del2      =   0.0000000000000E+00
(PID.TID 0000.0001) %MON ad_advcfl_aduvel_max         =   8.9687280640589E-04
(PID.TID 0000.0001) %MON ad_advcfl_advvel_max         =   1.5495293799394E-03
(PID.TID 0000.0001) %MON ad_advcfl_adwvel_max         =   4.0598637948381E+02
(PID.TID 0000.0001) %MON ad_advcfl_adW_hf_max         =   5.7315724162420E+02
(PID.TID 0000.0001) // =======================================================
(PID.TID 0000.0001) // End MONITOR dynamic field statistics
(PID.TID 0000.0001) // =======================================================
 cg2d: Sum(rhs),rhsMax =  -8.20478667645785E-13  5.59593566146651E-08
(PID.TID 0000.0001) // =======================================================
(PID.TID 0000.0001) // Begin MONITOR dynamic field statistics
(PID.TID 0000.0001) // =======================================================
(PID.TID 0000.0001) %MON ad_time_tsnumber             =                    85
(PID.TID 0000.0001) %MON ad_time_secondsf             =   3.6720000000000E+06
(PID.TID 0000.0001) %MON ad_dynstat_adeta_max         =   5.8078067749310E-03
(PID.TID 0000.0001) %MON ad_dynstat_adeta_min         =  -8.7377468248701E-03
(PID.TID 0000.0001) %MON ad_dynstat_adeta_mean        =   1.3374254481532E-05
(PID.TID 0000.0001) %MON ad_dynstat_adeta_sd          =   5.1606841826593E-04
(PID.TID 0000.0001) %MON ad_dynstat_adeta_del2        =   4.2127395729294E-05
(PID.TID 0000.0001) %MON ad_dynstat_aduvel_max        =   8.2585903331581E-03
(PID.TID 0000.0001) %MON ad_dynstat_aduvel_min        =  -5.3558374504250E-03
(PID.TID 0000.0001) %MON ad_dynstat_aduvel_mean       =  -1.9481938362779E-05
(PID.TID 0000.0001) %MON ad_dynstat_aduvel_sd         =   4.0043490751861E-04
(PID.TID 0000.0001) %MON ad_dynstat_aduvel_del2       =   2.0930966508903E-05
(PID.TID 0000.0001) %MON ad_dynstat_advvel_max        =   1.2185044433148E-02
(PID.TID 0000.0001) %MON ad_dynstat_advvel_min        =  -1.4824387901050E-02
(PID.TID 0000.0001) %MON ad_dynstat_advvel_mean       =   2.1338085985159E-05
(PID.TID 0000.0001) %MON ad_dynstat_advvel_sd         =   1.0923415061652E-03
(PID.TID 0000.0001) %MON ad_dynstat_advvel_del2       =   9.4801451852163E-05
(PID.TID 0000.0001) %MON ad_dynstat_adwvel_max        =   2.0226140397280E+00
(PID.TID 0000.0001) %MON ad_dynstat_adwvel_min        =  -1.1431842819308E+00
(PID.TID 0000.0001) %MON ad_dynstat_adwvel_mean       =   1.1133526151898E-04
(PID.TID 0000.0001) %MON ad_dynstat_adwvel_sd         =   4.8908616914035E-02
(PID.TID 0000.0001) %MON ad_dynstat_adwvel_del2       =   3.2635690199250E-03
(PID.TID 0000.0001) %MON ad_dynstat_adtheta_max       =   4.8628783966379E-03
(PID.TID 0000.0001) %MON ad_dynstat_adtheta_min       =  -5.0469352380722E-03
(PID.TID 0000.0001) %MON ad_dynstat_adtheta_mean      =   8.5472590477961E-07
(PID.TID 0000.0001) %MON ad_dynstat_adtheta_sd        =   2.3741136790690E-04
(PID.TID 0000.0001) %MON ad_dynstat_adtheta_del2      =   1.6818303872804E-05
(PID.TID 0000.0001) %MON ad_dynstat_adsalt_max        =   2.0026315816391E-02
(PID.TID 0000.0001) %MON ad_dynstat_adsalt_min        =  -2.1398161205247E-02
(PID.TID 0000.0001) %MON ad_dynstat_adsalt_mean       =  -4.8427635475124E-06
(PID.TID 0000.0001) %MON ad_dynstat_adsalt_sd         =   1.0772142272484E-03
(PID.TID 0000.0001) %MON ad_dynstat_adsalt_del2       =   7.1238505042565E-05
(PID.TID 0000.0001) %MON ad_dynstat_adsst_max         =   1.6998113330592E-04
(PID.TID 0000.0001) %MON ad_dynstat_adsst_min         =  -1.9563396105347E-04
(PID.TID 0000.0001) %MON ad_dynstat_adsst_mean        =  -6.4168261582947E-07
(PID.TID 0000.0001) %MON ad_dynstat_adsst_sd          =   1.3245938842296E-05
(PID.TID 0000.0001) %MON ad_dynstat_adsst_del2        =   1.2786537569203E-06
(PID.TID 0000.0001) %MON ad_dynstat_adsss_max         =   5.7530898034416E-04
(PID.TID 0000.0001) %MON ad_dynstat_adsss_min         =  -5.5438996778391E-04
(PID.TID 0000.0001) %MON ad_dynstat_adsss_mean        =   1.1348792067512E-06
(PID.TID 0000.0001) %MON ad_dynstat_adsss_sd          =   3.9577833952376E-05
(PID.TID 0000.0001) %MON ad_dynstat_adsss_del2        =   3.9231702602406E-06
(PID.TID 0000.0001) %MON ad_extforcing_adqnet_max     =   0.0000000000000E+00
(PID.TID 0000.0001) %MON ad_extforcing_adqnet_min     =   0.0000000000000E+00
(PID.TID 0000.0001) %MON ad_extforcing_adqnet_mean    =   0.0000000000000E+00
(PID.TID 0000.0001) %MON ad_extforcing_adqnet_sd      =   0.0000000000000E+00
(PID.TID 0000.0001) %MON ad_extforcing_adqnet_del2    =   0.0000000000000E+00
(PID.TID 0000.0001) %MON ad_extforcing_adempmr_max    =   4.4284347092032E+02
(PID.TID 0000.0001) %MON ad_extforcing_adempmr_min    =  -3.5549687752401E+02
(PID.TID 0000.0001) %MON ad_extforcing_adempmr_mean   =   6.2679562637304E-01
(PID.TID 0000.0001) %MON ad_extforcing_adempmr_sd     =   3.2719357567462E+01
(PID.TID 0000.0001) %MON ad_extforcing_adempmr_del2   =   3.1972129309699E+00
(PID.TID 0000.0001) %MON ad_extforcing_adfu_max       =   0.0000000000000E+00
(PID.TID 0000.0001) %MON ad_extforcing_adfu_min       =   0.0000000000000E+00
(PID.TID 0000.0001) %MON ad_extforcing_adfu_mean      =   0.0000000000000E+00
(PID.TID 0000.0001) %MON ad_extforcing_adfu_sd        =   0.0000000000000E+00
(PID.TID 0000.0001) %MON ad_extforcing_adfu_del2      =   0.0000000000000E+00
(PID.TID 0000.0001) %MON ad_extforcing_adfv_max       =   0.0000000000000E+00
(PID.TID 0000.0001) %MON ad_extforcing_adfv_min       =   0.0000000000000E+00
(PID.TID 0000.0001) %MON ad_extforcing_adfv_mean      =   0.0000000000000E+00
(PID.TID 0000.0001) %MON ad_extforcing_adfv_sd        =   0.0000000000000E+00
(PID.TID 0000.0001) %MON ad_extforcing_adfv_del2      =   0.0000000000000E+00
(PID.TID 0000.0001) %MON ad_advcfl_aduvel_max         =   8.9259138757898E-04
(PID.TID 0000.0001) %MON ad_advcfl_advvel_max         =   1.4400704072881E-03
(PID.TID 0000.0001) %MON ad_advcfl_adwvel_max         =   4.1421653290356E+02
(PID.TID 0000.0001) %MON ad_advcfl_adW_hf_max         =   5.8477628174620E+02
(PID.TID 0000.0001) // =======================================================
(PID.TID 0000.0001) // End MONITOR dynamic field statistics
(PID.TID 0000.0001) // =======================================================
 cg2d: Sum(rhs),rhsMax =  -5.77475567364871E-13  5.67517705818998E-08
time,SST,SSS,fu,fv,Q,E-P,i0,i1,a,b =   3.4992E+06 -3.0831E-01  3.4465E+01 -1.7614E-02 -2.3579E-02  2.4427E+02  0.0000E+00     1     2  8.5000E-01  1.5000E-01
time,fu0,fu1,fu =   3.4992E+06 -3.5633E-02 -1.4435E-02 -1.7614E-02  8.500000000000000E-01  1.500000000000000E-01
 cg2d: Sum(rhs),rhsMax =   2.64294142127142E-12  8.95108976893277E+00
time,SST,SSS,fu,fv,Q,E-P,i0,i1,a,b =   3.5424E+06 -3.3315E-01  3.4460E+01 -1.7261E-02 -2.2918E-02  2.4385E+02  0.0000E+00     1     2  8.6667E-01  1.3333E-01
time,fu0,fu1,fu =   3.5424E+06 -3.5633E-02 -1.4435E-02 -1.7261E-02  8.666666666666667E-01  1.333333333333333E-01
 cg2d: Sum(rhs),rhsMax =   3.46368767001337E-12  8.57195997233518E+00
time,SST,SSS,fu,fv,Q,E-P,i0,i1,a,b =   3.5856E+06 -3.5799E-01  3.4455E+01 -1.6908E-02 -2.2258E-02  2.4343E+02  0.0000E+00     1     2  8.8333E-01  1.1667E-01
time,fu0,fu1,fu =   3.5856E+06 -3.5633E-02 -1.4435E-02 -1.6908E-02  8.833333333333333E-01  1.166666666666667E-01
 cg2d: Sum(rhs),rhsMax =   3.88067356027477E-12  8.11762771956993E+00
(PID.TID 0000.0001) // =======================================================
(PID.TID 0000.0001) // Begin MONITOR dynamic field statistics
(PID.TID 0000.0001) // =======================================================
(PID.TID 0000.0001) %MON ad_time_tsnumber             =                    84
(PID.TID 0000.0001) %MON ad_time_secondsf             =   3.6288000000000E+06
(PID.TID 0000.0001) %MON ad_dynstat_adeta_max         =   5.8416891991583E-03
(PID.TID 0000.0001) %MON ad_dynstat_adeta_min         =  -8.8024508711619E-03
(PID.TID 0000.0001) %MON ad_dynstat_adeta_mean        =   1.3245622468136E-05
(PID.TID 0000.0001) %MON ad_dynstat_adeta_sd          =   5.1278385395924E-04
(PID.TID 0000.0001) %MON ad_dynstat_adeta_del2        =   4.1416170258555E-05
(PID.TID 0000.0001) %MON ad_dynstat_aduvel_max        =   8.1548005470578E-03
(PID.TID 0000.0001) %MON ad_dynstat_aduvel_min        =  -5.6608240203238E-03
(PID.TID 0000.0001) %MON ad_dynstat_aduvel_mean       =  -2.5786228585963E-05
(PID.TID 0000.0001) %MON ad_dynstat_aduvel_sd         =   4.0701675417988E-04
(PID.TID 0000.0001) %MON ad_dynstat_aduvel_del2       =   2.1129717617996E-05
(PID.TID 0000.0001) %MON ad_dynstat_advvel_max        =   1.3184733669399E-02
(PID.TID 0000.0001) %MON ad_dynstat_advvel_min        =  -1.3559583133422E-02
(PID.TID 0000.0001) %MON ad_dynstat_advvel_mean       =   2.9877791429255E-05
(PID.TID 0000.0001) %MON ad_dynstat_advvel_sd         =   1.1102210036641E-03
(PID.TID 0000.0001) %MON ad_dynstat_advvel_del2       =   9.8459374940859E-05
(PID.TID 0000.0001) %MON ad_dynstat_adwvel_max        =   2.0614410234276E+00
(PID.TID 0000.0001) %MON ad_dynstat_adwvel_min        =  -1.1617264277207E+00
(PID.TID 0000.0001) %MON ad_dynstat_adwvel_mean       =   1.1557197909708E-04
(PID.TID 0000.0001) %MON ad_dynstat_adwvel_sd         =   4.8131411186994E-02
(PID.TID 0000.0001) %MON ad_dynstat_adwvel_del2       =   3.1567593935452E-03
(PID.TID 0000.0001) %MON ad_dynstat_adtheta_max       =   4.9345242883217E-03
(PID.TID 0000.0001) %MON ad_dynstat_adtheta_min       =  -5.1349974957059E-03
(PID.TID 0000.0001) %MON ad_dynstat_adtheta_mean      =   8.6501931374333E-07
(PID.TID 0000.0001) %MON ad_dynstat_adtheta_sd        =   2.3374533279862E-04
(PID.TID 0000.0001) %MON ad_dynstat_adtheta_del2      =   1.6240497866358E-05
(PID.TID 0000.0001) %MON ad_dynstat_adsalt_max        =   1.9942922979297E-02
(PID.TID 0000.0001) %MON ad_dynstat_adsalt_min        =  -2.1610492903122E-02
(PID.TID 0000.0001) %MON ad_dynstat_adsalt_mean       =  -4.8929447463918E-06
(PID.TID 0000.0001) %MON ad_dynstat_adsalt_sd         =   1.0598771214616E-03
(PID.TID 0000.0001) %MON ad_dynstat_adsalt_del2       =   6.8707984159920E-05
(PID.TID 0000.0001) %MON ad_dynstat_adsst_max         =   1.7458537250394E-04
(PID.TID 0000.0001) %MON ad_dynstat_adsst_min         =  -1.9389172222282E-04
(PID.TID 0000.0001) %MON ad_dynstat_adsst_mean        =  -6.3552585496545E-07
(PID.TID 0000.0001) %MON ad_dynstat_adsst_sd          =   1.3201765525124E-05
(PID.TID 0000.0001) %MON ad_dynstat_adsst_del2        =   1.2657486431815E-06
(PID.TID 0000.0001) %MON ad_dynstat_adsss_max         =   5.6979157232299E-04
(PID.TID 0000.0001) %MON ad_dynstat_adsss_min         =  -5.7058409335636E-04
(PID.TID 0000.0001) %MON ad_dynstat_adsss_mean        =   1.1170112895014E-06
(PID.TID 0000.0001) %MON ad_dynstat_adsss_sd          =   3.9540359838949E-05
(PID.TID 0000.0001) %MON ad_dynstat_adsss_del2        =   3.9022419638298E-06
(PID.TID 0000.0001) %MON ad_extforcing_adqnet_max     =   0.0000000000000E+00
(PID.TID 0000.0001) %MON ad_extforcing_adqnet_min     =   0.0000000000000E+00
(PID.TID 0000.0001) %MON ad_extforcing_adqnet_mean    =   0.0000000000000E+00
(PID.TID 0000.0001) %MON ad_extforcing_adqnet_sd      =   0.0000000000000E+00
(PID.TID 0000.0001) %MON ad_extforcing_adqnet_del2    =   0.0000000000000E+00
(PID.TID 0000.0001) %MON ad_extforcing_adempmr_max    =   4.6426013974112E+02
(PID.TID 0000.0001) %MON ad_extforcing_adempmr_min    =  -3.7923898213083E+02
(PID.TID 0000.0001) %MON ad_extforcing_adempmr_mean   =   6.4865967926319E-01
(PID.TID 0000.0001) %MON ad_extforcing_adempmr_sd     =   3.4407093426557E+01
(PID.TID 0000.0001) %MON ad_extforcing_adempmr_del2   =   3.3514499784290E+00
(PID.TID 0000.0001) %MON ad_extforcing_adfu_max       =   0.0000000000000E+00
(PID.TID 0000.0001) %MON ad_extforcing_adfu_min       =   0.0000000000000E+00
(PID.TID 0000.0001) %MON ad_extforcing_adfu_mean      =   0.0000000000000E+00
(PID.TID 0000.0001) %MON ad_extforcing_adfu_sd        =   0.0000000000000E+00
(PID.TID 0000.0001) %MON ad_extforcing_adfu_del2      =   0.0000000000000E+00
(PID.TID 0000.0001) %MON ad_extforcing_adfv_max       =   0.0000000000000E+00
(PID.TID 0000.0001) %MON ad_extforcing_adfv_min       =   0.0000000000000E+00
(PID.TID 0000.0001) %MON ad_extforcing_adfv_mean      =   0.0000000000000E+00
(PID.TID 0000.0001) %MON ad_extforcing_adfv_sd        =   0.0000000000000E+00
(PID.TID 0000.0001) %MON ad_extforcing_adfv_del2      =   0.0000000000000E+00
(PID.TID 0000.0001) %MON ad_advcfl_aduvel_max         =   8.8137375049390E-04
(PID.TID 0000.0001) %MON ad_advcfl_advvel_max         =   1.3172047666280E-03
(PID.TID 0000.0001) %MON ad_advcfl_adwvel_max         =   4.2143428178474E+02
(PID.TID 0000.0001) %MON ad_advcfl_adW_hf_max         =   5.9496604487258E+02
(PID.TID 0000.0001) // =======================================================
(PID.TID 0000.0001) // End MONITOR dynamic field statistics
(PID.TID 0000.0001) // =======================================================
 cg2d: Sum(rhs),rhsMax =  -3.43785330064739E-13  5.74777591412427E-08
(PID.TID 0000.0001) // =======================================================
(PID.TID 0000.0001) // Begin MONITOR dynamic field statistics
(PID.TID 0000.0001) // =======================================================
(PID.TID 0000.0001) %MON ad_time_tsnumber             =                    83
(PID.TID 0000.0001) %MON ad_time_secondsf             =   3.5856000000000E+06
(PID.TID 0000.0001) %MON ad_dynstat_adeta_max         =   5.8643242961178E-03
(PID.TID 0000.0001) %MON ad_dynstat_adeta_min         =  -8.8531031054906E-03
(PID.TID 0000.0001) %MON ad_dynstat_adeta_mean        =   1.3089183504143E-05
(PID.TID 0000.0001) %MON ad_dynstat_adeta_sd          =   5.0887090231154E-04
(PID.TID 0000.0001) %MON ad_dynstat_adeta_del2        =   4.0599385508561E-05
(PID.TID 0000.0001) %MON ad_dynstat_aduvel_max        =   7.9861863303591E-03
(PID.TID 0000.0001) %MON ad_dynstat_aduvel_min        =  -5.9333132193897E-03
(PID.TID 0000.0001) %MON ad_dynstat_aduvel_mean       =  -3.2252872584311E-05
(PID.TID 0000.0001) %MON ad_dynstat_aduvel_sd         =   4.1489594957677E-04
(PID.TID 0000.0001) %MON ad_dynstat_aduvel_del2       =   2.1306294678347E-05
(PID.TID 0000.0001) %MON ad_dynstat_advvel_max        =   1.4012108098723E-02
(PID.TID 0000.0001) %MON ad_dynstat_advvel_min        =  -1.2164459532942E-02
(PID.TID 0000.0001) %MON ad_dynstat_advvel_mean       =   3.8210029798849E-05
(PID.TID 0000.0001) %MON ad_dynstat_advvel_sd         =   1.1342504636383E-03
(PID.TID 0000.0001) %MON ad_dynstat_advvel_del2       =   1.0119621697638E-04
(PID.TID 0000.0001) %MON ad_dynstat_adwvel_max        =   2.0957233371773E+00
(PID.TID 0000.0001) %MON ad_dynstat_adwvel_min        =  -1.1777958590155E+00
(PID.TID 0000.0001) %MON ad_dynstat_adwvel_mean       =   1.2035410202244E-04
(PID.TID 0000.0001) %MON ad_dynstat_adwvel_sd         =   4.7257337053440E-02
(PID.TID 0000.0001) %MON ad_dynstat_adwvel_del2       =   3.0423212629765E-03
(PID.TID 0000.0001) %MON ad_dynstat_adtheta_max       =   4.9958136130369E-03
(PID.TID 0000.0001) %MON ad_dynstat_adtheta_min       =  -5.2114877421709E-03
(PID.TID 0000.0001) %MON ad_dynstat_adtheta_mean      =   8.7138275092850E-07
(PID.TID 0000.0001) %MON ad_dynstat_adtheta_sd        =   2.3003044369278E-04
(PID.TID 0000.0001) %MON ad_dynstat_adtheta_del2      =   1.5648608498260E-05
(PID.TID 0000.0001) %MON ad_dynstat_adsalt_max        =   1.9829634091567E-02
(PID.TID 0000.0001) %MON ad_dynstat_adsalt_min        =  -2.1773139229221E-02
(PID.TID 0000.0001) %MON ad_dynstat_adsalt_mean       =  -4.9223705863196E-06
(PID.TID 0000.0001) %MON ad_dynstat_adsalt_sd         =   1.0425336276176E-03
(PID.TID 0000.0001) %MON ad_dynstat_adsalt_del2       =   6.6164670853869E-05
(PID.TID 0000.0001) %MON ad_dynstat_adsst_max         =   1.7885995331419E-04
(PID.TID 0000.0001) %MON ad_dynstat_adsst_min         =  -1.9152898857705E-04
(PID.TID 0000.0001) %MON ad_dynstat_adsst_mean        =  -6.2865341464583E-07
(PID.TID 0000.0001) %MON ad_dynstat_adsst_sd          =   1.3127501302672E-05
(PID.TID 0000.0001) %MON ad_dynstat_adsst_del2        =   1.2496857176430E-06
(PID.TID 0000.0001) %MON ad_dynstat_adsss_max         =   5.6237346661321E-04
(PID.TID 0000.0001) %MON ad_dynstat_adsss_min         =  -5.8586276309143E-04
(PID.TID 0000.0001) %MON ad_dynstat_adsss_mean        =   1.0959433990155E-06
(PID.TID 0000.0001) %MON ad_dynstat_adsss_sd          =   3.9416950063760E-05
(PID.TID 0000.0001) %MON ad_dynstat_adsss_del2        =   3.8716749900490E-06
(PID.TID 0000.0001) %MON ad_extforcing_adqnet_max     =   0.0000000000000E+00
(PID.TID 0000.0001) %MON ad_extforcing_adqnet_min     =   0.0000000000000E+00
(PID.TID 0000.0001) %MON ad_extforcing_adqnet_mean    =   0.0000000000000E+00
(PID.TID 0000.0001) %MON ad_extforcing_adqnet_sd      =   0.0000000000000E+00
(PID.TID 0000.0001) %MON ad_extforcing_adqnet_del2    =   0.0000000000000E+00
(PID.TID 0000.0001) %MON ad_extforcing_adempmr_max    =   4.8537297189690E+02
(PID.TID 0000.0001) %MON ad_extforcing_adempmr_min    =  -4.0349781822690E+02
(PID.TID 0000.0001) %MON ad_extforcing_adempmr_mean   =   6.6998941249858E-01
(PID.TID 0000.0001) %MON ad_extforcing_adempmr_sd     =   3.6080974015491E+01
(PID.TID 0000.0001) %MON ad_extforcing_adempmr_del2   =   3.5031736065960E+00
(PID.TID 0000.0001) %MON ad_extforcing_adfu_max       =   0.0000000000000E+00
(PID.TID 0000.0001) %MON ad_extforcing_adfu_min       =   0.0000000000000E+00
(PID.TID 0000.0001) %MON ad_extforcing_adfu_mean      =   0.0000000000000E+00
(PID.TID 0000.0001) %MON ad_extforcing_adfu_sd        =   0.0000000000000E+00
(PID.TID 0000.0001) %MON ad_extforcing_adfu_del2      =   0.0000000000000E+00
(PID.TID 0000.0001) %MON ad_extforcing_adfv_max       =   0.0000000000000E+00
(PID.TID 0000.0001) %MON ad_extforcing_adfv_min       =   0.0000000000000E+00
(PID.TID 0000.0001) %MON ad_extforcing_adfv_mean      =   0.0000000000000E+00
(PID.TID 0000.0001) %MON ad_extforcing_adfv_sd        =   0.0000000000000E+00
(PID.TID 0000.0001) %MON ad_extforcing_adfv_del2      =   0.0000000000000E+00
(PID.TID 0000.0001) %MON ad_advcfl_aduvel_max         =   8.6314986583838E-04
(PID.TID 0000.0001) %MON ad_advcfl_advvel_max         =   1.3611639381930E-03
(PID.TID 0000.0001) %MON ad_advcfl_adwvel_max         =   4.2765283592113E+02
(PID.TID 0000.0001) %MON ad_advcfl_adW_hf_max         =   6.0374518012394E+02
(PID.TID 0000.0001) // =======================================================
(PID.TID 0000.0001) // End MONITOR dynamic field statistics
(PID.TID 0000.0001) // =======================================================
 cg2d: Sum(rhs),rhsMax =  -1.16349204576371E-13  5.81300324209127E-08
(PID.TID 0000.0001) // =======================================================
(PID.TID 0000.0001) // Begin MONITOR dynamic field statistics
(PID.TID 0000.0001) // =======================================================
(PID.TID 0000.0001) %MON ad_time_tsnumber             =                    82
(PID.TID 0000.0001) %MON ad_time_secondsf             =   3.5424000000000E+06
(PID.TID 0000.0001) %MON ad_dynstat_adeta_max         =   5.8764743939121E-03
(PID.TID 0000.0001) %MON ad_dynstat_adeta_min         =  -8.8891207864759E-03
(PID.TID 0000.0001) %MON ad_dynstat_adeta_mean        =   1.2907328969795E-05
(PID.TID 0000.0001) %MON ad_dynstat_adeta_sd          =   5.0443304813981E-04
(PID.TID 0000.0001) %MON ad_dynstat_adeta_del2        =   3.9721227213897E-05
(PID.TID 0000.0001) %MON ad_dynstat_aduvel_max        =   7.7527798076295E-03
(PID.TID 0000.0001) %MON ad_dynstat_aduvel_min        =  -6.1716669161731E-03
(PID.TID 0000.0001) %MON ad_dynstat_aduvel_mean       =  -3.8799928970870E-05
(PID.TID 0000.0001) %MON ad_dynstat_aduvel_sd         =   4.2394451109660E-04
(PID.TID 0000.0001) %MON ad_dynstat_aduvel_del2       =   2.1463278268034E-05
(PID.TID 0000.0001) %MON ad_dynstat_advvel_max        =   1.4658875694978E-02
(PID.TID 0000.0001) %MON ad_dynstat_advvel_min        =  -1.3457518922994E-02
(PID.TID 0000.0001) %MON ad_dynstat_advvel_mean       =   4.6217533279665E-05
(PID.TID 0000.0001) %MON ad_dynstat_advvel_sd         =   1.1626882036155E-03
(PID.TID 0000.0001) %MON ad_dynstat_advvel_del2       =   1.0326996035153E-04
(PID.TID 0000.0001) %MON ad_dynstat_adwvel_max        =   2.1255009756095E+00
(PID.TID 0000.0001) %MON ad_dynstat_adwvel_min        =  -1.1914590241148E+00
(PID.TID 0000.0001) %MON ad_dynstat_adwvel_mean       =   1.2566718949512E-04
(PID.TID 0000.0001) %MON ad_dynstat_adwvel_sd         =   4.6305949459430E-02
(PID.TID 0000.0001) %MON ad_dynstat_adwvel_del2       =   2.9243561238047E-03
(PID.TID 0000.0001) %MON ad_dynstat_adtheta_max       =   5.0470481606811E-03
(PID.TID 0000.0001) %MON ad_dynstat_adtheta_min       =  -5.2765500628280E-03
(PID.TID 0000.0001) %MON ad_dynstat_adtheta_mean      =   8.7386700763955E-07
(PID.TID 0000.0001) %MON ad_dynstat_adtheta_sd        =   2.2636180249354E-04
(PID.TID 0000.0001) %MON ad_dynstat_adtheta_del2      =   1.5075516495905E-05
(PID.TID 0000.0001) %MON ad_dynstat_adsalt_max        =   1.9739932029080E-02
(PID.TID 0000.0001) %MON ad_dynstat_adsalt_min        =  -2.1890020133516E-02
(PID.TID 0000.0001) %MON ad_dynstat_adsalt_mean       =  -4.9313111715539E-06
(PID.TID 0000.0001) %MON ad_dynstat_adsalt_sd         =   1.0256304014060E-03
(PID.TID 0000.0001) %MON ad_dynstat_adsalt_del2       =   6.3689080424774E-05
(PID.TID 0000.0001) %MON ad_dynstat_adsst_max         =   1.8277306665417E-04
(PID.TID 0000.0001) %MON ad_dynstat_adsst_min         =  -1.8859003978735E-04
(PID.TID 0000.0001) %MON ad_dynstat_adsst_mean        =  -6.2136925359241E-07
(PID.TID 0000.0001) %MON ad_dynstat_adsst_sd          =   1.3022742715963E-05
(PID.TID 0000.0001) %MON ad_dynstat_adsst_del2        =   1.2303181985799E-06
(PID.TID 0000.0001) %MON ad_dynstat_adsss_max         =   5.5318617224284E-04
(PID.TID 0000.0001) %MON ad_dynstat_adsss_min         =  -6.0012158149769E-04
(PID.TID 0000.0001) %MON ad_dynstat_adsss_mean        =   1.0722387438022E-06
(PID.TID 0000.0001) %MON ad_dynstat_adsss_sd          =   3.9206068708011E-05
(PID.TID 0000.0001) %MON ad_dynstat_adsss_del2        =   3.8313671638314E-06
(PID.TID 0000.0001) %MON ad_extforcing_adqnet_max     =   0.0000000000000E+00
(PID.TID 0000.0001) %MON ad_extforcing_adqnet_min     =   0.0000000000000E+00
(PID.TID 0000.0001) %MON ad_extforcing_adqnet_mean    =   0.0000000000000E+00
(PID.TID 0000.0001) %MON ad_extforcing_adqnet_sd      =   0.0000000000000E+00
(PID.TID 0000.0001) %MON ad_extforcing_adqnet_del2    =   0.0000000000000E+00
(PID.TID 0000.0001) %MON ad_extforcing_adempmr_max    =   5.0611956566937E+02
(PID.TID 0000.0001) %MON ad_extforcing_adempmr_min    =  -4.2823448782038E+02
(PID.TID 0000.0001) %MON ad_extforcing_adempmr_mean   =   6.9069559990803E-01
(PID.TID 0000.0001) %MON ad_extforcing_adempmr_sd     =   3.7736956378419E+01
(PID.TID 0000.0001) %MON ad_extforcing_adempmr_del2   =   3.6543517390387E+00
(PID.TID 0000.0001) %MON ad_extforcing_adfu_max       =   0.0000000000000E+00
(PID.TID 0000.0001) %MON ad_extforcing_adfu_min       =   0.0000000000000E+00
(PID.TID 0000.0001) %MON ad_extforcing_adfu_mean      =   0.0000000000000E+00
(PID.TID 0000.0001) %MON ad_extforcing_adfu_sd        =   0.0000000000000E+00
(PID.TID 0000.0001) %MON ad_extforcing_adfu_del2      =   0.0000000000000E+00
(PID.TID 0000.0001) %MON ad_extforcing_adfv_max       =   0.0000000000000E+00
(PID.TID 0000.0001) %MON ad_extforcing_adfv_min       =   0.0000000000000E+00
(PID.TID 0000.0001) %MON ad_extforcing_adfv_mean      =   0.0000000000000E+00
(PID.TID 0000.0001) %MON ad_extforcing_adfv_sd        =   0.0000000000000E+00
(PID.TID 0000.0001) %MON ad_extforcing_adfv_del2      =   0.0000000000000E+00
(PID.TID 0000.0001) %MON ad_advcfl_aduvel_max         =   8.3792320564714E-04
(PID.TID 0000.0001) %MON ad_advcfl_advvel_max         =   1.4239922237166E-03
(PID.TID 0000.0001) %MON ad_advcfl_adwvel_max         =   4.3289575738077E+02
(PID.TID 0000.0001) %MON ad_advcfl_adW_hf_max         =   6.1114695159637E+02
(PID.TID 0000.0001) // =======================================================
(PID.TID 0000.0001) // End MONITOR dynamic field statistics
(PID.TID 0000.0001) // =======================================================
 cg2d: Sum(rhs),rhsMax =   1.09491408994966E-13  5.87029303122669E-08
time,SST,SSS,fu,fv,Q,E-P,i0,i1,a,b =   3.3696E+06 -2.3380E-01  3.4480E+01 -1.8674E-02 -2.5560E-02  2.4554E+02  0.0000E+00     1     2  8.0000E-01  2.0000E-01
time,fu0,fu1,fu =   3.3696E+06 -3.5633E-02 -1.4435E-02 -1.8674E-02  8.000000000000000E-01  2.000000000000000E-01
 cg2d: Sum(rhs),rhsMax =   1.98395466721735E-12  9.54625980631856E+00
time,SST,SSS,fu,fv,Q,E-P,i0,i1,a,b =   3.4128E+06 -2.5864E-01  3.4475E+01 -1.8321E-02 -2.4899E-02  2.4512E+02  0.0000E+00     1     2  8.1667E-01  1.8333E-01
time,fu0,fu1,fu =   3.4128E+06 -3.5633E-02 -1.4435E-02 -1.8321E-02  8.166666666666667E-01  1.833333333333333E-01
 cg2d: Sum(rhs),rhsMax =   2.35774594292693E-12  9.44553374716868E+00
time,SST,SSS,fu,fv,Q,E-P,i0,i1,a,b =   3.4560E+06 -2.8348E-01  3.4470E+01 -1.7968E-02 -2.4239E-02  2.4470E+02  0.0000E+00     1     2  8.3333E-01  1.6667E-01
time,fu0,fu1,fu =   3.4560E+06 -3.5633E-02 -1.4435E-02 -1.7968E-02  8.333333333333334E-01  1.666666666666666E-01
 cg2d: Sum(rhs),rhsMax =   2.63671723343961E-12  9.24503765445439E+00
(PID.TID 0000.0001) // =======================================================
(PID.TID 0000.0001) // Begin MONITOR dynamic field statistics
(PID.TID 0000.0001) // =======================================================
(PID.TID 0000.0001) %MON ad_time_tsnumber             =                    81
(PID.TID 0000.0001) %MON ad_time_secondsf             =   3.4992000000000E+06
(PID.TID 0000.0001) %MON ad_dynstat_adeta_max         =   5.8789953989537E-03
(PID.TID 0000.0001) %MON ad_dynstat_adeta_min         =  -8.9101576377316E-03
(PID.TID 0000.0001) %MON ad_dynstat_adeta_mean        =   1.2702634741289E-05
(PID.TID 0000.0001) %MON ad_dynstat_adeta_sd          =   4.9956382391385E-04
(PID.TID 0000.0001) %MON ad_dynstat_adeta_del2        =   3.8830625362356E-05
(PID.TID 0000.0001) %MON ad_dynstat_aduvel_max        =   7.4553196453427E-03
(PID.TID 0000.0001) %MON ad_dynstat_aduvel_min        =  -6.3749009662516E-03
(PID.TID 0000.0001) %MON ad_dynstat_aduvel_mean       =  -4.5341285163091E-05
(PID.TID 0000.0001) %MON ad_dynstat_aduvel_sd         =   4.3394241058252E-04
(PID.TID 0000.0001) %MON ad_dynstat_aduvel_del2       =   2.1608272776276E-05
(PID.TID 0000.0001) %MON ad_dynstat_advvel_max        =   1.5119901451703E-02
(PID.TID 0000.0001) %MON ad_dynstat_advvel_min        =  -1.5677514502204E-02
(PID.TID 0000.0001) %MON ad_dynstat_advvel_mean       =   5.3791939260401E-05
(PID.TID 0000.0001) %MON ad_dynstat_advvel_sd         =   1.1939270300257E-03
(PID.TID 0000.0001) %MON ad_dynstat_advvel_del2       =   1.0450737059554E-04
(PID.TID 0000.0001) %MON ad_dynstat_adwvel_max        =   2.1508510939635E+00
(PID.TID 0000.0001) %MON ad_dynstat_adwvel_min        =  -1.2028046282231E+00
(PID.TID 0000.0001) %MON ad_dynstat_adwvel_mean       =   1.3149235870352E-04
(PID.TID 0000.0001) %MON ad_dynstat_adwvel_sd         =   4.5296722792799E-02
(PID.TID 0000.0001) %MON ad_dynstat_adwvel_del2       =   2.8050062009150E-03
(PID.TID 0000.0001) %MON ad_dynstat_adtheta_max       =   5.0886247036365E-03
(PID.TID 0000.0001) %MON ad_dynstat_adtheta_min       =  -5.3304280109335E-03
(PID.TID 0000.0001) %MON ad_dynstat_adtheta_mean      =   8.7259081843517E-07
(PID.TID 0000.0001) %MON ad_dynstat_adtheta_sd        =   2.2281719898360E-04
(PID.TID 0000.0001) %MON ad_dynstat_adtheta_del2      =   1.4524189034099E-05
(PID.TID 0000.0001) %MON ad_dynstat_adsalt_max        =   1.9933103579416E-02
(PID.TID 0000.0001) %MON ad_dynstat_adsalt_min        =  -2.2073940601067E-02
(PID.TID 0000.0001) %MON ad_dynstat_adsalt_mean       =  -4.9203284816220E-06
(PID.TID 0000.0001) %MON ad_dynstat_adsalt_sd         =   1.0095251702398E-03
(PID.TID 0000.0001) %MON ad_dynstat_adsalt_del2       =   6.1341704935561E-05
(PID.TID 0000.0001) %MON ad_dynstat_adsst_max         =   1.8629438768201E-04
(PID.TID 0000.0001) %MON ad_dynstat_adsst_min         =  -1.8512346481805E-04
(PID.TID 0000.0001) %MON ad_dynstat_adsst_mean        =  -6.1367397096856E-07
(PID.TID 0000.0001) %MON ad_dynstat_adsst_sd          =   1.2888742575493E-05
(PID.TID 0000.0001) %MON ad_dynstat_adsst_del2        =   1.2077044950458E-06
(PID.TID 0000.0001) %MON ad_dynstat_adsss_max         =   5.4237457034470E-04
(PID.TID 0000.0001) %MON ad_dynstat_adsss_min         =  -6.1325913533987E-04
(PID.TID 0000.0001) %MON ad_dynstat_adsss_mean        =   1.0460463084260E-06
(PID.TID 0000.0001) %MON ad_dynstat_adsss_sd          =   3.8910361521554E-05
(PID.TID 0000.0001) %MON ad_dynstat_adsss_del2        =   3.7818187779000E-06
(PID.TID 0000.0001) %MON ad_extforcing_adqnet_max     =   0.0000000000000E+00
(PID.TID 0000.0001) %MON ad_extforcing_adqnet_min     =   0.0000000000000E+00
(PID.TID 0000.0001) %MON ad_extforcing_adqnet_mean    =   0.0000000000000E+00
(PID.TID 0000.0001) %MON ad_extforcing_adqnet_sd      =   0.0000000000000E+00
(PID.TID 0000.0001) %MON ad_extforcing_adqnet_del2    =   0.0000000000000E+00
(PID.TID 0000.0001) %MON ad_extforcing_adempmr_max    =   5.2644263383252E+02
(PID.TID 0000.0001) %MON ad_extforcing_adempmr_min    =  -4.5340809542072E+02
(PID.TID 0000.0001) %MON ad_extforcing_adempmr_mean   =   7.1067627802636E-01
(PID.TID 0000.0001) %MON ad_extforcing_adempmr_sd     =   3.9371288813154E+01
(PID.TID 0000.0001) %MON ad_extforcing_adempmr_del2   =   3.8022257160526E+00
(PID.TID 0000.0001) %MON ad_extforcing_adfu_max       =   0.0000000000000E+00
(PID.TID 0000.0001) %MON ad_extforcing_adfu_min       =   0.0000000000000E+00
(PID.TID 0000.0001) %MON ad_extforcing_adfu_mean      =   0.0000000000000E+00
(PID.TID 0000.0001) %MON ad_extforcing_adfu_sd        =   0.0000000000000E+00
(PID.TID 0000.0001) %MON ad_extforcing_adfu_del2      =   0.0000000000000E+00
(PID.TID 0000.0001) %MON ad_extforcing_adfv_max       =   0.0000000000000E+00
(PID.TID 0000.0001) %MON ad_extforcing_adfv_min       =   0.0000000000000E+00
(PID.TID 0000.0001) %MON ad_extforcing_adfv_mean      =   0.0000000000000E+00
(PID.TID 0000.0001) %MON ad_extforcing_adfv_sd        =   0.0000000000000E+00
(PID.TID 0000.0001) %MON ad_extforcing_adfv_del2      =   0.0000000000000E+00
(PID.TID 0000.0001) %MON ad_advcfl_aduvel_max         =   8.0577360525602E-04
(PID.TID 0000.0001) %MON ad_advcfl_advvel_max         =   1.5229448153374E-03
(PID.TID 0000.0001) %MON ad_advcfl_adwvel_max         =   4.3719619663833E+02
(PID.TID 0000.0001) %MON ad_advcfl_adW_hf_max         =   6.1721815996000E+02
(PID.TID 0000.0001) // =======================================================
(PID.TID 0000.0001) // End MONITOR dynamic field statistics
(PID.TID 0000.0001) // =======================================================
 cg2d: Sum(rhs),rhsMax =   7.97278909558941E-14  5.91928477751862E-08
 myIter=  80
 ph-mnc in addummy param  T
 ph-mnc in addummy myiter  80
(PID.TID 0000.0001) // =======================================================
(PID.TID 0000.0001) // Begin MONITOR dynamic field statistics
(PID.TID 0000.0001) // =======================================================
(PID.TID 0000.0001) %MON ad_time_tsnumber             =                    80
(PID.TID 0000.0001) %MON ad_time_secondsf             =   3.4560000000000E+06
(PID.TID 0000.0001) %MON ad_dynstat_adeta_max         =   5.8727555246578E-03
(PID.TID 0000.0001) %MON ad_dynstat_adeta_min         =  -8.9161627141004E-03
(PID.TID 0000.0001) %MON ad_dynstat_adeta_mean        =   1.2423846291479E-05
(PID.TID 0000.0001) %MON ad_dynstat_adeta_sd          =   4.9427485015867E-04
(PID.TID 0000.0001) %MON ad_dynstat_adeta_del2        =   3.7870099047113E-05
(PID.TID 0000.0001) %MON ad_dynstat_aduvel_max        =   7.0952920790443E-03
(PID.TID 0000.0001) %MON ad_dynstat_aduvel_min        =  -6.6090305652807E-03
(PID.TID 0000.0001) %MON ad_dynstat_aduvel_mean       =  -5.6358907448153E-05
(PID.TID 0000.0001) %MON ad_dynstat_aduvel_sd         =   4.4528871969529E-04
(PID.TID 0000.0001) %MON ad_dynstat_aduvel_del2       =   2.1188497342808E-05
(PID.TID 0000.0001) %MON ad_dynstat_advvel_max        =   1.5495448375193E-02
(PID.TID 0000.0001) %MON ad_dynstat_advvel_min        =  -1.7684046190700E-02
(PID.TID 0000.0001) %MON ad_dynstat_advvel_mean       =   6.0878401837594E-05
(PID.TID 0000.0001) %MON ad_dynstat_advvel_sd         =   1.2266011307119E-03
(PID.TID 0000.0001) %MON ad_dynstat_advvel_del2       =   1.0546603155443E-04
(PID.TID 0000.0001) %MON ad_dynstat_adwvel_max        =   2.1718858285594E+00
(PID.TID 0000.0001) %MON ad_dynstat_adwvel_min        =  -1.2119423390897E+00
(PID.TID 0000.0001) %MON ad_dynstat_adwvel_mean       =   1.3786392605111E-04
(PID.TID 0000.0001) %MON ad_dynstat_adwvel_sd         =   4.4248385410623E-02
(PID.TID 0000.0001) %MON ad_dynstat_adwvel_del2       =   2.6851225148815E-03
(PID.TID 0000.0001) %MON ad_dynstat_adtheta_max       =   5.1210303749390E-03
(PID.TID 0000.0001) %MON ad_dynstat_adtheta_min       =  -5.3734594702420E-03
(PID.TID 0000.0001) %MON ad_dynstat_adtheta_mean      =   8.2569998157799E-07
(PID.TID 0000.0001) %MON ad_dynstat_adtheta_sd        =   2.1945598342344E-04
(PID.TID 0000.0001) %MON ad_dynstat_adtheta_del2      =   1.4014159256401E-05
(PID.TID 0000.0001) %MON ad_dynstat_adsalt_max        =   2.0085946881989E-02
(PID.TID 0000.0001) %MON ad_dynstat_adsalt_min        =  -2.2217937375287E-02
(PID.TID 0000.0001) %MON ad_dynstat_adsalt_mean       =  -4.6745544109209E-06
(PID.TID 0000.0001) %MON ad_dynstat_adsalt_sd         =   9.9448309684922E-04
(PID.TID 0000.0001) %MON ad_dynstat_adsalt_del2       =   5.9156631447815E-05
(PID.TID 0000.0001) %MON ad_dynstat_adsst_max         =   1.8939807402123E-04
(PID.TID 0000.0001) %MON ad_dynstat_adsst_min         =  -1.8118221646184E-04
(PID.TID 0000.0001) %MON ad_dynstat_adsst_mean        =  -6.2108126536543E-07
(PID.TID 0000.0001) %MON ad_dynstat_adsst_sd          =   1.2743468267403E-05
(PID.TID 0000.0001) %MON ad_dynstat_adsst_del2        =   1.1879215424599E-06
(PID.TID 0000.0001) %MON ad_dynstat_adsss_max         =   5.3009700782263E-04
(PID.TID 0000.0001) %MON ad_dynstat_adsss_min         =  -6.2518628723404E-04
(PID.TID 0000.0001) %MON ad_dynstat_adsss_mean        =   1.0611355772525E-06
(PID.TID 0000.0001) %MON ad_dynstat_adsss_sd          =   3.8584120682508E-05
(PID.TID 0000.0001) %MON ad_dynstat_adsss_del2        =   3.7265911763835E-06
(PID.TID 0000.0001) %MON ad_extforcing_adqnet_max     =   0.0000000000000E+00
(PID.TID 0000.0001) %MON ad_extforcing_adqnet_min     =   0.0000000000000E+00
(PID.TID 0000.0001) %MON ad_extforcing_adqnet_mean    =   0.0000000000000E+00
(PID.TID 0000.0001) %MON ad_extforcing_adqnet_sd      =   0.0000000000000E+00
(PID.TID 0000.0001) %MON ad_extforcing_adqnet_del2    =   0.0000000000000E+00
(PID.TID 0000.0001) %MON ad_extforcing_adempmr_max    =   5.4629043486285E+02
(PID.TID 0000.0001) %MON ad_extforcing_adempmr_min    =  -4.7897595413827E+02
(PID.TID 0000.0001) %MON ad_extforcing_adempmr_mean   =   7.2951516825788E-01
(PID.TID 0000.0001) %MON ad_extforcing_adempmr_sd     =   4.0982269665439E+01
(PID.TID 0000.0001) %MON ad_extforcing_adempmr_del2   =   3.9467329843975E+00
(PID.TID 0000.0001) %MON ad_extforcing_adfu_max       =   0.0000000000000E+00
(PID.TID 0000.0001) %MON ad_extforcing_adfu_min       =   0.0000000000000E+00
(PID.TID 0000.0001) %MON ad_extforcing_adfu_mean      =   0.0000000000000E+00
(PID.TID 0000.0001) %MON ad_extforcing_adfu_sd        =   0.0000000000000E+00
(PID.TID 0000.0001) %MON ad_extforcing_adfu_del2      =   0.0000000000000E+00
(PID.TID 0000.0001) %MON ad_extforcing_adfv_max       =   0.0000000000000E+00
(PID.TID 0000.0001) %MON ad_extforcing_adfv_min       =   0.0000000000000E+00
(PID.TID 0000.0001) %MON ad_extforcing_adfv_mean      =   0.0000000000000E+00
(PID.TID 0000.0001) %MON ad_extforcing_adfv_sd        =   0.0000000000000E+00
(PID.TID 0000.0001) %MON ad_extforcing_adfv_del2      =   0.0000000000000E+00
(PID.TID 0000.0001) %MON ad_advcfl_aduvel_max         =   7.6686169753265E-04
(PID.TID 0000.0001) %MON ad_advcfl_advvel_max         =   1.7178632784252E-03
(PID.TID 0000.0001) %MON ad_advcfl_adwvel_max         =   4.4059603808805E+02
(PID.TID 0000.0001) %MON ad_advcfl_adW_hf_max         =   6.2201793612431E+02
(PID.TID 0000.0001) // =======================================================
(PID.TID 0000.0001) // End MONITOR dynamic field statistics
(PID.TID 0000.0001) // =======================================================
 cg2d: Sum(rhs),rhsMax =   9.44608974373651E-14  5.95985647333602E-08
(PID.TID 0000.0001) // =======================================================
(PID.TID 0000.0001) // Begin MONITOR dynamic field statistics
(PID.TID 0000.0001) // =======================================================
(PID.TID 0000.0001) %MON ad_time_tsnumber             =                    79
(PID.TID 0000.0001) %MON ad_time_secondsf             =   3.4128000000000E+06
(PID.TID 0000.0001) %MON ad_dynstat_adeta_max         =   5.8585726383542E-03
(PID.TID 0000.0001) %MON ad_dynstat_adeta_min         =  -8.9074145762804E-03
(PID.TID 0000.0001) %MON ad_dynstat_adeta_mean        =   1.2236019141743E-05
(PID.TID 0000.0001) %MON ad_dynstat_adeta_sd          =   4.8887320191700E-04
(PID.TID 0000.0001) %MON ad_dynstat_adeta_del2        =   3.7151953074540E-05
(PID.TID 0000.0001) %MON ad_dynstat_aduvel_max        =   7.0906881079216E-03
(PID.TID 0000.0001) %MON ad_dynstat_aduvel_min        =  -7.5334100900874E-03
(PID.TID 0000.0001) %MON ad_dynstat_aduvel_mean       =  -5.8051500050179E-05
(PID.TID 0000.0001) %MON ad_dynstat_aduvel_sd         =   4.5559671886186E-04
(PID.TID 0000.0001) %MON ad_dynstat_aduvel_del2       =   2.2019253458645E-05
(PID.TID 0000.0001) %MON ad_dynstat_advvel_max        =   1.5918328326141E-02
(PID.TID 0000.0001) %MON ad_dynstat_advvel_min        =  -1.9465198239476E-02
(PID.TID 0000.0001) %MON ad_dynstat_advvel_mean       =   6.7258615139644E-05
(PID.TID 0000.0001) %MON ad_dynstat_advvel_sd         =   1.2595219167702E-03
(PID.TID 0000.0001) %MON ad_dynstat_advvel_del2       =   1.0639792231947E-04
(PID.TID 0000.0001) %MON ad_dynstat_adwvel_max        =   2.1887501669994E+00
(PID.TID 0000.0001) %MON ad_dynstat_adwvel_min        =  -1.2190009863855E+00
(PID.TID 0000.0001) %MON ad_dynstat_adwvel_mean       =   1.4466224497924E-04
(PID.TID 0000.0001) %MON ad_dynstat_adwvel_sd         =   4.3179555868330E-02
(PID.TID 0000.0001) %MON ad_dynstat_adwvel_del2       =   2.5669802511979E-03
(PID.TID 0000.0001) %MON ad_dynstat_adtheta_max       =   5.1448361464552E-03
(PID.TID 0000.0001) %MON ad_dynstat_adtheta_min       =  -5.4060718757072E-03
(PID.TID 0000.0001) %MON ad_dynstat_adtheta_mean      =   8.5948682721660E-07
(PID.TID 0000.0001) %MON ad_dynstat_adtheta_sd        =   2.1630989876117E-04
(PID.TID 0000.0001) %MON ad_dynstat_adtheta_del2      =   1.3538278060912E-05
(PID.TID 0000.0001) %MON ad_dynstat_adsalt_max        =   2.0200184436542E-02
(PID.TID 0000.0001) %MON ad_dynstat_adsalt_min        =  -2.2324378764402E-02
(PID.TID 0000.0001) %MON ad_dynstat_adsalt_mean       =  -4.8420381661289E-06
(PID.TID 0000.0001) %MON ad_dynstat_adsalt_sd         =   9.8062255805182E-04
(PID.TID 0000.0001) %MON ad_dynstat_adsalt_del2       =   5.7186148337317E-05
(PID.TID 0000.0001) %MON ad_dynstat_adsst_max         =   1.9206301362024E-04
(PID.TID 0000.0001) %MON ad_dynstat_adsst_min         =  -1.7682431860156E-04
(PID.TID 0000.0001) %MON ad_dynstat_adsst_mean        =  -5.9037324412931E-07
(PID.TID 0000.0001) %MON ad_dynstat_adsst_sd          =   1.2574458030014E-05
(PID.TID 0000.0001) %MON ad_dynstat_adsst_del2        =   1.1598851506206E-06
(PID.TID 0000.0001) %MON ad_dynstat_adsss_max         =   5.1652736339722E-04
(PID.TID 0000.0001) %MON ad_dynstat_adsss_min         =  -6.3582738091231E-04
(PID.TID 0000.0001) %MON ad_dynstat_adsss_mean        =   9.6671454349098E-07
(PID.TID 0000.0001) %MON ad_dynstat_adsss_sd          =   3.8190205489833E-05
(PID.TID 0000.0001) %MON ad_dynstat_adsss_del2        =   3.6747421067523E-06
(PID.TID 0000.0001) %MON ad_extforcing_adqnet_max     =   0.0000000000000E+00
(PID.TID 0000.0001) %MON ad_extforcing_adqnet_min     =   0.0000000000000E+00
(PID.TID 0000.0001) %MON ad_extforcing_adqnet_mean    =   0.0000000000000E+00
(PID.TID 0000.0001) %MON ad_extforcing_adqnet_sd      =   0.0000000000000E+00
(PID.TID 0000.0001) %MON ad_extforcing_adqnet_del2    =   0.0000000000000E+00
(PID.TID 0000.0001) %MON ad_extforcing_adempmr_max    =   5.6561721470694E+02
(PID.TID 0000.0001) %MON ad_extforcing_adempmr_min    =  -5.0489397244925E+02
(PID.TID 0000.0001) %MON ad_extforcing_adempmr_mean   =   7.4721291784086E-01
(PID.TID 0000.0001) %MON ad_extforcing_adempmr_sd     =   4.2566372898427E+01
(PID.TID 0000.0001) %MON ad_extforcing_adempmr_del2   =   4.0875682570471E+00
(PID.TID 0000.0001) %MON ad_extforcing_adfu_max       =   0.0000000000000E+00
(PID.TID 0000.0001) %MON ad_extforcing_adfu_min       =   0.0000000000000E+00
(PID.TID 0000.0001) %MON ad_extforcing_adfu_mean      =   0.0000000000000E+00
(PID.TID 0000.0001) %MON ad_extforcing_adfu_sd        =   0.0000000000000E+00
(PID.TID 0000.0001) %MON ad_extforcing_adfu_del2      =   0.0000000000000E+00
(PID.TID 0000.0001) %MON ad_extforcing_adfv_max       =   0.0000000000000E+00
(PID.TID 0000.0001) %MON ad_extforcing_adfv_min       =   0.0000000000000E+00
(PID.TID 0000.0001) %MON ad_extforcing_adfv_mean      =   0.0000000000000E+00
(PID.TID 0000.0001) %MON ad_extforcing_adfv_sd        =   0.0000000000000E+00
(PID.TID 0000.0001) %MON ad_extforcing_adfv_del2      =   0.0000000000000E+00
(PID.TID 0000.0001) %MON ad_advcfl_aduvel_max         =   8.4502183927638E-04
(PID.TID 0000.0001) %MON ad_advcfl_advvel_max         =   1.8908879168415E-03
(PID.TID 0000.0001) %MON ad_advcfl_adwvel_max         =   4.4314500282664E+02
(PID.TID 0000.0001) %MON ad_advcfl_adW_hf_max         =   6.2561647457878E+02
(PID.TID 0000.0001) // =======================================================
(PID.TID 0000.0001) // End MONITOR dynamic field statistics
(PID.TID 0000.0001) // =======================================================
 cg2d: Sum(rhs),rhsMax =   3.97902197302180E-14  5.99213079878089E-08
time,SST,SSS,fu,fv,Q,E-P,i0,i1,a,b =   3.2400E+06 -1.5929E-01  3.4494E+01 -1.9734E-02 -2.7541E-02  2.4680E+02  0.0000E+00     1     2  7.5000E-01  2.5000E-01
time,fu0,fu1,fu =   3.2400E+06 -3.5633E-02 -1.4435E-02 -1.9734E-02  7.500000000000000E-01  2.500000000000000E-01
 cg2d: Sum(rhs),rhsMax =   2.85418910728197E-12  9.21995752446141E+00
time,SST,SSS,fu,fv,Q,E-P,i0,i1,a,b =   3.2832E+06 -1.8412E-01  3.4490E+01 -1.9381E-02 -2.6880E-02  2.4638E+02  0.0000E+00     1     2  7.6667E-01  2.3333E-01
time,fu0,fu1,fu =   3.2832E+06 -3.5633E-02 -1.4435E-02 -1.9381E-02  7.666666666666667E-01  2.333333333333333E-01
 cg2d: Sum(rhs),rhsMax =   2.65262811716127E-12  9.43408891658781E+00
time,SST,SSS,fu,fv,Q,E-P,i0,i1,a,b =   3.3264E+06 -2.0896E-01  3.4485E+01 -1.9028E-02 -2.6220E-02  2.4596E+02  0.0000E+00     1     2  7.8333E-01  2.1667E-01
time,fu0,fu1,fu =   3.3264E+06 -3.5633E-02 -1.4435E-02 -1.9028E-02  7.833333333333333E-01  2.166666666666667E-01
 cg2d: Sum(rhs),rhsMax =   2.32094898855451E-12  9.54305671450154E+00
(PID.TID 0000.0001) // =======================================================
(PID.TID 0000.0001) // Begin MONITOR dynamic field statistics
(PID.TID 0000.0001) // =======================================================
(PID.TID 0000.0001) %MON ad_time_tsnumber             =                    78
(PID.TID 0000.0001) %MON ad_time_secondsf             =   3.3696000000000E+06
(PID.TID 0000.0001) %MON ad_dynstat_adeta_max         =   5.8371752305742E-03
(PID.TID 0000.0001) %MON ad_dynstat_adeta_min         =  -8.8845246299837E-03
(PID.TID 0000.0001) %MON ad_dynstat_adeta_mean        =   1.1980242953198E-05
(PID.TID 0000.0001) %MON ad_dynstat_adeta_sd          =   4.8321067866271E-04
(PID.TID 0000.0001) %MON ad_dynstat_adeta_del2        =   3.6298811805880E-05
(PID.TID 0000.0001) %MON ad_dynstat_aduvel_max        =   7.2839444416384E-03
(PID.TID 0000.0001) %MON ad_dynstat_aduvel_min        =  -8.3915810440940E-03
(PID.TID 0000.0001) %MON ad_dynstat_aduvel_mean       =  -6.4042033891753E-05
(PID.TID 0000.0001) %MON ad_dynstat_aduvel_sd         =   4.6659723330778E-04
(PID.TID 0000.0001) %MON ad_dynstat_aduvel_del2       =   2.2199399507028E-05
(PID.TID 0000.0001) %MON ad_dynstat_advvel_max        =   1.6158696246223E-02
(PID.TID 0000.0001) %MON ad_dynstat_advvel_min        =  -2.1011515006174E-02
(PID.TID 0000.0001) %MON ad_dynstat_advvel_mean       =   7.2987360746718E-05
(PID.TID 0000.0001) %MON ad_dynstat_advvel_sd         =   1.2919077080723E-03
(PID.TID 0000.0001) %MON ad_dynstat_advvel_del2       =   1.0702177024296E-04
(PID.TID 0000.0001) %MON ad_dynstat_adwvel_max        =   2.2016203868165E+00
(PID.TID 0000.0001) %MON ad_dynstat_adwvel_min        =  -1.2241264460546E+00
(PID.TID 0000.0001) %MON ad_dynstat_adwvel_mean       =   1.5191223249401E-04
(PID.TID 0000.0001) %MON ad_dynstat_adwvel_sd         =   4.2107129417919E-02
(PID.TID 0000.0001) %MON ad_dynstat_adwvel_del2       =   2.4499190977787E-03
(PID.TID 0000.0001) %MON ad_dynstat_adtheta_max       =   5.1606888377031E-03
(PID.TID 0000.0001) %MON ad_dynstat_adtheta_min       =  -5.4287779688991E-03
(PID.TID 0000.0001) %MON ad_dynstat_adtheta_mean      =   8.4819381472428E-07
(PID.TID 0000.0001) %MON ad_dynstat_adtheta_sd        =   2.1339884604395E-04
(PID.TID 0000.0001) %MON ad_dynstat_adtheta_del2      =   1.3102351443779E-05
(PID.TID 0000.0001) %MON ad_dynstat_adsalt_max        =   2.0277857013561E-02
(PID.TID 0000.0001) %MON ad_dynstat_adsalt_min        =  -2.2395970387730E-02
(PID.TID 0000.0001) %MON ad_dynstat_adsalt_mean       =  -4.7771300857959E-06
(PID.TID 0000.0001) %MON ad_dynstat_adsalt_sd         =   9.6801269879658E-04
(PID.TID 0000.0001) %MON ad_dynstat_adsalt_del2       =   5.5420797322665E-05
(PID.TID 0000.0001) %MON ad_dynstat_adsst_max         =   1.9427592250518E-04
(PID.TID 0000.0001) %MON ad_dynstat_adsst_min         =  -1.7320612705565E-04
(PID.TID 0000.0001) %MON ad_dynstat_adsst_mean        =  -5.7866608614998E-07
(PID.TID 0000.0001) %MON ad_dynstat_adsst_sd          =   1.2383996208174E-05
(PID.TID 0000.0001) %MON ad_dynstat_adsst_del2        =   1.1322857680910E-06
(PID.TID 0000.0001) %MON ad_dynstat_adsss_max         =   5.0184411639776E-04
(PID.TID 0000.0001) %MON ad_dynstat_adsss_min         =  -6.4512983341468E-04
(PID.TID 0000.0001) %MON ad_dynstat_adsss_mean        =   9.2443818196153E-07
(PID.TID 0000.0001) %MON ad_dynstat_adsss_sd          =   3.7731553864255E-05
(PID.TID 0000.0001) %MON ad_dynstat_adsss_del2        =   3.6135767391002E-06
(PID.TID 0000.0001) %MON ad_extforcing_adqnet_max     =   0.0000000000000E+00
(PID.TID 0000.0001) %MON ad_extforcing_adqnet_min     =   0.0000000000000E+00
(PID.TID 0000.0001) %MON ad_extforcing_adqnet_mean    =   0.0000000000000E+00
(PID.TID 0000.0001) %MON ad_extforcing_adqnet_sd      =   0.0000000000000E+00
(PID.TID 0000.0001) %MON ad_extforcing_adqnet_del2    =   0.0000000000000E+00
(PID.TID 0000.0001) %MON ad_extforcing_adempmr_max    =   5.8438371035992E+02
(PID.TID 0000.0001) %MON ad_extforcing_adempmr_min    =  -5.3111705201704E+02
(PID.TID 0000.0001) %MON ad_extforcing_adempmr_mean   =   7.6351225548126E-01
(PID.TID 0000.0001) %MON ad_extforcing_adempmr_sd     =   4.4122154529772E+01
(PID.TID 0000.0001) %MON ad_extforcing_adempmr_del2   =   4.2247247250999E+00
(PID.TID 0000.0001) %MON ad_extforcing_adfu_max       =   0.0000000000000E+00
(PID.TID 0000.0001) %MON ad_extforcing_adfu_min       =   0.0000000000000E+00
(PID.TID 0000.0001) %MON ad_extforcing_adfu_mean      =   0.0000000000000E+00
(PID.TID 0000.0001) %MON ad_extforcing_adfu_sd        =   0.0000000000000E+00
(PID.TID 0000.0001) %MON ad_extforcing_adfu_del2      =   0.0000000000000E+00
(PID.TID 0000.0001) %MON ad_extforcing_adfv_max       =   0.0000000000000E+00
(PID.TID 0000.0001) %MON ad_extforcing_adfv_min       =   0.0000000000000E+00
(PID.TID 0000.0001) %MON ad_extforcing_adfv_mean      =   0.0000000000000E+00
(PID.TID 0000.0001) %MON ad_extforcing_adfv_sd        =   0.0000000000000E+00
(PID.TID 0000.0001) %MON ad_extforcing_adfv_del2      =   0.0000000000000E+00
(PID.TID 0000.0001) %MON ad_advcfl_aduvel_max         =   9.4128278741226E-04
(PID.TID 0000.0001) %MON ad_advcfl_advvel_max         =   2.0411001907565E-03
(PID.TID 0000.0001) %MON ad_advcfl_adwvel_max         =   4.4489989056285E+02
(PID.TID 0000.0001) %MON ad_advcfl_adW_hf_max         =   6.2809396314755E+02
(PID.TID 0000.0001) // =======================================================
(PID.TID 0000.0001) // End MONITOR dynamic field statistics
(PID.TID 0000.0001) // =======================================================
 cg2d: Sum(rhs),rhsMax =   2.30969757208932E-14  6.01645605427451E-08
(PID.TID 0000.0001) // =======================================================
(PID.TID 0000.0001) // Begin MONITOR dynamic field statistics
(PID.TID 0000.0001) // =======================================================
(PID.TID 0000.0001) %MON ad_time_tsnumber             =                    77
(PID.TID 0000.0001) %MON ad_time_secondsf             =   3.3264000000000E+06
(PID.TID 0000.0001) %MON ad_dynstat_adeta_max         =   5.8091758500307E-03
(PID.TID 0000.0001) %MON ad_dynstat_adeta_min         =  -8.8484028633739E-03
(PID.TID 0000.0001) %MON ad_dynstat_adeta_mean        =   1.1713906910123E-05
(PID.TID 0000.0001) %MON ad_dynstat_adeta_sd          =   4.7743539431115E-04
(PID.TID 0000.0001) %MON ad_dynstat_adeta_del2        =   3.5436189581094E-05
(PID.TID 0000.0001) %MON ad_dynstat_aduvel_max        =   7.4542769115795E-03
(PID.TID 0000.0001) %MON ad_dynstat_aduvel_min        =  -9.1746551065076E-03
(PID.TID 0000.0001) %MON ad_dynstat_aduvel_mean       =  -6.9673277086456E-05
(PID.TID 0000.0001) %MON ad_dynstat_aduvel_sd         =   4.7729159590930E-04
(PID.TID 0000.0001) %MON ad_dynstat_aduvel_del2       =   2.2381999581885E-05
(PID.TID 0000.0001) %MON ad_dynstat_advvel_max        =   1.6216935854129E-02
(PID.TID 0000.0001) %MON ad_dynstat_advvel_min        =  -2.2316022341324E-02
(PID.TID 0000.0001) %MON ad_dynstat_advvel_mean       =   7.7958373487805E-05
(PID.TID 0000.0001) %MON ad_dynstat_advvel_sd         =   1.3231303955823E-03
(PID.TID 0000.0001) %MON ad_dynstat_advvel_del2       =   1.0764553045731E-04
(PID.TID 0000.0001) %MON ad_dynstat_adwvel_max        =   2.2107031313019E+00
(PID.TID 0000.0001) %MON ad_dynstat_adwvel_min        =  -1.2274793753563E+00
(PID.TID 0000.0001) %MON ad_dynstat_adwvel_mean       =   1.5947922816845E-04
(PID.TID 0000.0001) %MON ad_dynstat_adwvel_sd         =   4.1046704973925E-02
(PID.TID 0000.0001) %MON ad_dynstat_adwvel_del2       =   2.3362468170827E-03
(PID.TID 0000.0001) %MON ad_dynstat_adtheta_max       =   5.1693023241290E-03
(PID.TID 0000.0001) %MON ad_dynstat_adtheta_min       =  -5.4421725230403E-03
(PID.TID 0000.0001) %MON ad_dynstat_adtheta_mean      =   8.3415250123072E-07
(PID.TID 0000.0001) %MON ad_dynstat_adtheta_sd        =   2.1071711756551E-04
(PID.TID 0000.0001) %MON ad_dynstat_adtheta_del2      =   1.2702381735815E-05
(PID.TID 0000.0001) %MON ad_dynstat_adsalt_max        =   2.0321307564518E-02
(PID.TID 0000.0001) %MON ad_dynstat_adsalt_min        =  -2.2435720476335E-02
(PID.TID 0000.0001) %MON ad_dynstat_adsalt_mean       =  -4.6969215595278E-06
(PID.TID 0000.0001) %MON ad_dynstat_adsalt_sd         =   9.5658790139893E-04
(PID.TID 0000.0001) %MON ad_dynstat_adsalt_del2       =   5.3810844247444E-05
(PID.TID 0000.0001) %MON ad_dynstat_adsst_max         =   1.9603160041056E-04
(PID.TID 0000.0001) %MON ad_dynstat_adsst_min         =  -1.7151946755902E-04
(PID.TID 0000.0001) %MON ad_dynstat_adsst_mean        =  -5.6912417751384E-07
(PID.TID 0000.0001) %MON ad_dynstat_adsst_sd          =   1.2163687494415E-05
(PID.TID 0000.0001) %MON ad_dynstat_adsst_del2        =   1.1015811219240E-06
(PID.TID 0000.0001) %MON ad_dynstat_adsss_max         =   4.8771139378558E-04
(PID.TID 0000.0001) %MON ad_dynstat_adsss_min         =  -6.5306538903907E-04
(PID.TID 0000.0001) %MON ad_dynstat_adsss_mean        =   8.8655517281946E-07
(PID.TID 0000.0001) %MON ad_dynstat_adsss_sd          =   3.7182878550316E-05
(PID.TID 0000.0001) %MON ad_dynstat_adsss_del2        =   3.5409757752822E-06
(PID.TID 0000.0001) %MON ad_extforcing_adqnet_max     =   0.0000000000000E+00
(PID.TID 0000.0001) %MON ad_extforcing_adqnet_min     =   0.0000000000000E+00
(PID.TID 0000.0001) %MON ad_extforcing_adqnet_mean    =   0.0000000000000E+00
(PID.TID 0000.0001) %MON ad_extforcing_adqnet_sd      =   0.0000000000000E+00
(PID.TID 0000.0001) %MON ad_extforcing_adqnet_del2    =   0.0000000000000E+00
(PID.TID 0000.0001) %MON ad_extforcing_adempmr_max    =   6.0255758902032E+02
(PID.TID 0000.0001) %MON ad_extforcing_adempmr_min    =  -5.5759964198441E+02
(PID.TID 0000.0001) %MON ad_extforcing_adempmr_mean   =   7.7854655533870E-01
(PID.TID 0000.0001) %MON ad_extforcing_adempmr_sd     =   4.5646127687085E+01
(PID.TID 0000.0001) %MON ad_extforcing_adempmr_del2   =   4.3578372968349E+00
(PID.TID 0000.0001) %MON ad_extforcing_adfu_max       =   0.0000000000000E+00
(PID.TID 0000.0001) %MON ad_extforcing_adfu_min       =   0.0000000000000E+00
(PID.TID 0000.0001) %MON ad_extforcing_adfu_mean      =   0.0000000000000E+00
(PID.TID 0000.0001) %MON ad_extforcing_adfu_sd        =   0.0000000000000E+00
(PID.TID 0000.0001) %MON ad_extforcing_adfu_del2      =   0.0000000000000E+00
(PID.TID 0000.0001) %MON ad_extforcing_adfv_max       =   0.0000000000000E+00
(PID.TID 0000.0001) %MON ad_extforcing_adfv_min       =   0.0000000000000E+00
(PID.TID 0000.0001) %MON ad_extforcing_adfv_mean      =   0.0000000000000E+00
(PID.TID 0000.0001) %MON ad_extforcing_adfv_sd        =   0.0000000000000E+00
(PID.TID 0000.0001) %MON ad_extforcing_adfv_del2      =   0.0000000000000E+00
(PID.TID 0000.0001) %MON ad_advcfl_aduvel_max         =   1.0291201248992E-03
(PID.TID 0000.0001) %MON ad_advcfl_advvel_max         =   2.1678226174752E-03
(PID.TID 0000.0001) %MON ad_advcfl_adwvel_max         =   4.4592387264368E+02
(PID.TID 0000.0001) %MON ad_advcfl_adW_hf_max         =   6.2953958490872E+02
(PID.TID 0000.0001) // =======================================================
(PID.TID 0000.0001) // End MONITOR dynamic field statistics
(PID.TID 0000.0001) // =======================================================
 cg2d: Sum(rhs),rhsMax =  -6.13571693452997E-15  6.03335781799243E-08
(PID.TID 0000.0001) // =======================================================
(PID.TID 0000.0001) // Begin MONITOR dynamic field statistics
(PID.TID 0000.0001) // =======================================================
(PID.TID 0000.0001) %MON ad_time_tsnumber             =                    76
(PID.TID 0000.0001) %MON ad_time_secondsf             =   3.2832000000000E+06
(PID.TID 0000.0001) %MON ad_dynstat_adeta_max         =   5.7750597210553E-03
(PID.TID 0000.0001) %MON ad_dynstat_adeta_min         =  -8.8002088821146E-03
(PID.TID 0000.0001) %MON ad_dynstat_adeta_mean        =   1.1440540492678E-05
(PID.TID 0000.0001) %MON ad_dynstat_adeta_sd          =   4.7161537635285E-04
(PID.TID 0000.0001) %MON ad_dynstat_adeta_del2        =   3.4634759649993E-05
(PID.TID 0000.0001) %MON ad_dynstat_aduvel_max        =   7.5990896565797E-03
(PID.TID 0000.0001) %MON ad_dynstat_aduvel_min        =  -9.8740973637528E-03
(PID.TID 0000.0001) %MON ad_dynstat_aduvel_mean       =  -7.4861311099224E-05
(PID.TID 0000.0001) %MON ad_dynstat_aduvel_sd         =   4.8740224399206E-04
(PID.TID 0000.0001) %MON ad_dynstat_aduvel_del2       =   2.2621626177775E-05
(PID.TID 0000.0001) %MON ad_dynstat_advvel_max        =   1.6397946693459E-02
(PID.TID 0000.0001) %MON ad_dynstat_advvel_min        =  -2.3374220579281E-02
(PID.TID 0000.0001) %MON ad_dynstat_advvel_mean       =   8.2122312904113E-05
(PID.TID 0000.0001) %MON ad_dynstat_advvel_sd         =   1.3528138292271E-03
(PID.TID 0000.0001) %MON ad_dynstat_advvel_del2       =   1.0854880853296E-04
(PID.TID 0000.0001) %MON ad_dynstat_adwvel_max        =   2.2162349087900E+00
(PID.TID 0000.0001) %MON ad_dynstat_adwvel_min        =  -1.2292327583642E+00
(PID.TID 0000.0001) %MON ad_dynstat_adwvel_mean       =   1.6742784273989E-04
(PID.TID 0000.0001) %MON ad_dynstat_adwvel_sd         =   4.0012107221209E-02
(PID.TID 0000.0001) %MON ad_dynstat_adwvel_del2       =   2.2266686326428E-03
(PID.TID 0000.0001) %MON ad_dynstat_adtheta_max       =   5.1714473242593E-03
(PID.TID 0000.0001) %MON ad_dynstat_adtheta_min       =  -5.4469282284584E-03
(PID.TID 0000.0001) %MON ad_dynstat_adtheta_mean      =   8.1768580283848E-07
(PID.TID 0000.0001) %MON ad_dynstat_adtheta_sd        =   2.0824449209470E-04
(PID.TID 0000.0001) %MON ad_dynstat_adtheta_del2      =   1.2344391836053E-05
(PID.TID 0000.0001) %MON ad_dynstat_adsalt_max        =   2.0333162042779E-02
(PID.TID 0000.0001) %MON ad_dynstat_adsalt_min        =  -2.2446899249411E-02
(PID.TID 0000.0001) %MON ad_dynstat_adsalt_mean       =  -4.6029598970069E-06
(PID.TID 0000.0001) %MON ad_dynstat_adsalt_sd         =   9.4621363619467E-04
(PID.TID 0000.0001) %MON ad_dynstat_adsalt_del2       =   5.2407079763044E-05
(PID.TID 0000.0001) %MON ad_dynstat_adsst_max         =   1.9733427566608E-04
(PID.TID 0000.0001) %MON ad_dynstat_adsst_min         =  -1.7168570000626E-04
(PID.TID 0000.0001) %MON ad_dynstat_adsst_mean        =  -5.5807381336944E-07
(PID.TID 0000.0001) %MON ad_dynstat_adsst_sd          =   1.1938235054784E-05
(PID.TID 0000.0001) %MON ad_dynstat_adsst_del2        =   1.0715795983327E-06
(PID.TID 0000.0001) %MON ad_dynstat_adsss_max         =   4.7893783865748E-04
(PID.TID 0000.0001) %MON ad_dynstat_adsss_min         =  -6.5963477430348E-04
(PID.TID 0000.0001) %MON ad_dynstat_adsss_mean        =   8.4345573220042E-07
(PID.TID 0000.0001) %MON ad_dynstat_adsss_sd          =   3.6617581311364E-05
(PID.TID 0000.0001) %MON ad_dynstat_adsss_del2        =   3.4681279281390E-06
(PID.TID 0000.0001) %MON ad_extforcing_adqnet_max     =   0.0000000000000E+00
(PID.TID 0000.0001) %MON ad_extforcing_adqnet_min     =   0.0000000000000E+00
(PID.TID 0000.0001) %MON ad_extforcing_adqnet_mean    =   0.0000000000000E+00
(PID.TID 0000.0001) %MON ad_extforcing_adqnet_sd      =   0.0000000000000E+00
(PID.TID 0000.0001) %MON ad_extforcing_adqnet_del2    =   0.0000000000000E+00
(PID.TID 0000.0001) %MON ad_extforcing_adempmr_max    =   6.2015522807528E+02
(PID.TID 0000.0001) %MON ad_extforcing_adempmr_min    =  -5.8429634553562E+02
(PID.TID 0000.0001) %MON ad_extforcing_adempmr_mean   =   7.9240684534694E-01
(PID.TID 0000.0001) %MON ad_extforcing_adempmr_sd     =   4.7136610958944E+01
(PID.TID 0000.0001) %MON ad_extforcing_adempmr_del2   =   4.4868026572635E+00
(PID.TID 0000.0001) %MON ad_extforcing_adfu_max       =   0.0000000000000E+00
(PID.TID 0000.0001) %MON ad_extforcing_adfu_min       =   0.0000000000000E+00
(PID.TID 0000.0001) %MON ad_extforcing_adfu_mean      =   0.0000000000000E+00
(PID.TID 0000.0001) %MON ad_extforcing_adfu_sd        =   0.0000000000000E+00
(PID.TID 0000.0001) %MON ad_extforcing_adfu_del2      =   0.0000000000000E+00
(PID.TID 0000.0001) %MON ad_extforcing_adfv_max       =   0.0000000000000E+00
(PID.TID 0000.0001) %MON ad_extforcing_adfv_min       =   0.0000000000000E+00
(PID.TID 0000.0001) %MON ad_extforcing_adfv_mean      =   0.0000000000000E+00
(PID.TID 0000.0001) %MON ad_extforcing_adfv_sd        =   0.0000000000000E+00
(PID.TID 0000.0001) %MON ad_extforcing_adfv_del2      =   0.0000000000000E+00
(PID.TID 0000.0001) %MON ad_advcfl_aduvel_max         =   1.1075764913543E-03
(PID.TID 0000.0001) %MON ad_advcfl_advvel_max         =   2.2706180905631E-03
(PID.TID 0000.0001) %MON ad_advcfl_adwvel_max         =   4.4628585188808E+02
(PID.TID 0000.0001) %MON ad_advcfl_adW_hf_max         =   6.3005061443023E+02
(PID.TID 0000.0001) // =======================================================
(PID.TID 0000.0001) // End MONITOR dynamic field statistics
(PID.TID 0000.0001) // =======================================================
 cg2d: Sum(rhs),rhsMax =   1.14483075797089E-14  6.04349528010507E-08
time,SST,SSS,fu,fv,Q,E-P,i0,i1,a,b =   3.1104E+06 -8.4772E-02  3.4509E+01 -2.0794E-02 -2.9522E-02  2.4807E+02  0.0000E+00     1     2  7.0000E-01  3.0000E-01
time,fu0,fu1,fu =   3.1104E+06 -3.5633E-02 -1.4435E-02 -2.0794E-02  7.000000000000000E-01  3.000000000000000E-01
 cg2d: Sum(rhs),rhsMax =   3.09095804507109E-12  8.02911791318484E+00
time,SST,SSS,fu,fv,Q,E-P,i0,i1,a,b =   3.1536E+06 -1.0961E-01  3.4504E+01 -2.0441E-02 -2.8862E-02  2.4765E+02  0.0000E+00     1     2  7.1667E-01  2.8333E-01
time,fu0,fu1,fu =   3.1536E+06 -3.5633E-02 -1.4435E-02 -2.0441E-02  7.166666666666667E-01  2.833333333333333E-01
 cg2d: Sum(rhs),rhsMax =   3.05679787038216E-12  8.49105103448685E+00
time,SST,SSS,fu,fv,Q,E-P,i0,i1,a,b =   3.1968E+06 -1.3445E-01  3.4499E+01 -2.0088E-02 -2.8201E-02  2.4722E+02  0.0000E+00     1     2  7.3333E-01  2.6667E-01
time,fu0,fu1,fu =   3.1968E+06 -3.5633E-02 -1.4435E-02 -2.0088E-02  7.333333333333333E-01  2.666666666666667E-01
 cg2d: Sum(rhs),rhsMax =   2.75723888165658E-12  8.90375443856866E+00
(PID.TID 0000.0001) // =======================================================
(PID.TID 0000.0001) // Begin MONITOR dynamic field statistics
(PID.TID 0000.0001) // =======================================================
(PID.TID 0000.0001) %MON ad_time_tsnumber             =                    75
(PID.TID 0000.0001) %MON ad_time_secondsf             =   3.2400000000000E+06
(PID.TID 0000.0001) %MON ad_dynstat_adeta_max         =   5.7352348876804E-03
(PID.TID 0000.0001) %MON ad_dynstat_adeta_min         =  -8.7412974563223E-03
(PID.TID 0000.0001) %MON ad_dynstat_adeta_mean        =   1.1163796603462E-05
(PID.TID 0000.0001) %MON ad_dynstat_adeta_sd          =   4.6581227122453E-04
(PID.TID 0000.0001) %MON ad_dynstat_adeta_del2        =   3.3914072613714E-05
(PID.TID 0000.0001) %MON ad_dynstat_aduvel_max        =   7.7159107222157E-03
(PID.TID 0000.0001) %MON ad_dynstat_aduvel_min        =  -1.0481911158013E-02
(PID.TID 0000.0001) %MON ad_dynstat_aduvel_mean       =  -7.9526690634234E-05
(PID.TID 0000.0001) %MON ad_dynstat_aduvel_sd         =   4.9669991432931E-04
(PID.TID 0000.0001) %MON ad_dynstat_aduvel_del2       =   2.2882362047170E-05
(PID.TID 0000.0001) %MON ad_dynstat_advvel_max        =   1.6606780167416E-02
(PID.TID 0000.0001) %MON ad_dynstat_advvel_min        =  -2.4184101222450E-02
(PID.TID 0000.0001) %MON ad_dynstat_advvel_mean       =   8.5444392716221E-05
(PID.TID 0000.0001) %MON ad_dynstat_advvel_sd         =   1.3807500150440E-03
(PID.TID 0000.0001) %MON ad_dynstat_advvel_del2       =   1.0878413208783E-04
(PID.TID 0000.0001) %MON ad_dynstat_adwvel_max        =   2.2184810645083E+00
(PID.TID 0000.0001) %MON ad_dynstat_adwvel_min        =  -1.2295689379331E+00
(PID.TID 0000.0001) %MON ad_dynstat_adwvel_mean       =   1.7551642180499E-04
(PID.TID 0000.0001) %MON ad_dynstat_adwvel_sd         =   3.9014409107456E-02
(PID.TID 0000.0001) %MON ad_dynstat_adwvel_del2       =   2.1220389903610E-03
(PID.TID 0000.0001) %MON ad_dynstat_adtheta_max       =   5.1679378824219E-03
(PID.TID 0000.0001) %MON ad_dynstat_adtheta_min       =  -5.4437911115385E-03
(PID.TID 0000.0001) %MON ad_dynstat_adtheta_mean      =   7.9922228189939E-07
(PID.TID 0000.0001) %MON ad_dynstat_adtheta_sd        =   2.0594887237279E-04
(PID.TID 0000.0001) %MON ad_dynstat_adtheta_del2      =   1.2013659315119E-05
(PID.TID 0000.0001) %MON ad_dynstat_adsalt_max        =   2.0316308080168E-02
(PID.TID 0000.0001) %MON ad_dynstat_adsalt_min        =  -2.2432983206486E-02
(PID.TID 0000.0001) %MON ad_dynstat_adsalt_mean       =  -4.4972089721160E-06
(PID.TID 0000.0001) %MON ad_dynstat_adsalt_sd         =   9.3669922934673E-04
(PID.TID 0000.0001) %MON ad_dynstat_adsalt_del2       =   5.1118575710080E-05
(PID.TID 0000.0001) %MON ad_dynstat_adsst_max         =   1.9819738614225E-04
(PID.TID 0000.0001) %MON ad_dynstat_adsst_min         =  -1.7163272610570E-04
(PID.TID 0000.0001) %MON ad_dynstat_adsst_mean        =  -5.4631370796597E-07
(PID.TID 0000.0001) %MON ad_dynstat_adsst_sd          =   1.1733260608767E-05
(PID.TID 0000.0001) %MON ad_dynstat_adsst_del2        =   1.0461977387216E-06
(PID.TID 0000.0001) %MON ad_dynstat_adsss_max         =   4.7390340523173E-04
(PID.TID 0000.0001) %MON ad_dynstat_adsss_min         =  -6.6486773864939E-04
(PID.TID 0000.0001) %MON ad_dynstat_adsss_mean        =   7.9811827101244E-07
(PID.TID 0000.0001) %MON ad_dynstat_adsss_sd          =   3.6112321689649E-05
(PID.TID 0000.0001) %MON ad_dynstat_adsss_del2        =   3.4033377138946E-06
(PID.TID 0000.0001) %MON ad_extforcing_adqnet_max     =   0.0000000000000E+00
(PID.TID 0000.0001) %MON ad_extforcing_adqnet_min     =   0.0000000000000E+00
(PID.TID 0000.0001) %MON ad_extforcing_adqnet_mean    =   0.0000000000000E+00
(PID.TID 0000.0001) %MON ad_extforcing_adqnet_sd      =   0.0000000000000E+00
(PID.TID 0000.0001) %MON ad_extforcing_adqnet_del2    =   0.0000000000000E+00
(PID.TID 0000.0001) %MON ad_extforcing_adempmr_max    =   6.3756795329042E+02
(PID.TID 0000.0001) %MON ad_extforcing_adempmr_min    =  -6.1116271956242E+02
(PID.TID 0000.0001) %MON ad_extforcing_adempmr_mean   =   8.0528139380623E-01
(PID.TID 0000.0001) %MON ad_extforcing_adempmr_sd     =   4.8595029145054E+01
(PID.TID 0000.0001) %MON ad_extforcing_adempmr_del2   =   4.6117780271130E+00
(PID.TID 0000.0001) %MON ad_extforcing_adfu_max       =   0.0000000000000E+00
(PID.TID 0000.0001) %MON ad_extforcing_adfu_min       =   0.0000000000000E+00
(PID.TID 0000.0001) %MON ad_extforcing_adfu_mean      =   0.0000000000000E+00
(PID.TID 0000.0001) %MON ad_extforcing_adfu_sd        =   0.0000000000000E+00
(PID.TID 0000.0001) %MON ad_extforcing_adfu_del2      =   0.0000000000000E+00
(PID.TID 0000.0001) %MON ad_extforcing_adfv_max       =   0.0000000000000E+00
(PID.TID 0000.0001) %MON ad_extforcing_adfv_min       =   0.0000000000000E+00
(PID.TID 0000.0001) %MON ad_extforcing_adfv_mean      =   0.0000000000000E+00
(PID.TID 0000.0001) %MON ad_extforcing_adfv_sd        =   0.0000000000000E+00
(PID.TID 0000.0001) %MON ad_extforcing_adfv_del2      =   0.0000000000000E+00
(PID.TID 0000.0001) %MON ad_advcfl_aduvel_max         =   1.1757549024884E-03
(PID.TID 0000.0001) %MON ad_advcfl_advvel_max         =   2.3492915005850E-03
(PID.TID 0000.0001) %MON ad_advcfl_adwvel_max         =   4.4605967494958E+02
(PID.TID 0000.0001) %MON ad_advcfl_adW_hf_max         =   6.2973130581117E+02
(PID.TID 0000.0001) // =======================================================
(PID.TID 0000.0001) // End MONITOR dynamic field statistics
(PID.TID 0000.0001) // =======================================================
 cg2d: Sum(rhs),rhsMax =   1.61069074744447E-14  6.04762922903085E-08
(PID.TID 0000.0001) // =======================================================
(PID.TID 0000.0001) // Begin MONITOR dynamic field statistics
(PID.TID 0000.0001) // =======================================================
(PID.TID 0000.0001) %MON ad_time_tsnumber             =                    74
(PID.TID 0000.0001) %MON ad_time_secondsf             =   3.1968000000000E+06
(PID.TID 0000.0001) %MON ad_dynstat_adeta_max         =   5.6899594803634E-03
(PID.TID 0000.0001) %MON ad_dynstat_adeta_min         =  -8.6731468870574E-03
(PID.TID 0000.0001) %MON ad_dynstat_adeta_mean        =   1.0887397359519E-05
(PID.TID 0000.0001) %MON ad_dynstat_adeta_sd          =   4.6006116795639E-04
(PID.TID 0000.0001) %MON ad_dynstat_adeta_del2        =   3.3232035118782E-05
(PID.TID 0000.0001) %MON ad_dynstat_aduvel_max        =   7.8025865007910E-03
(PID.TID 0000.0001) %MON ad_dynstat_aduvel_min        =  -1.0990684636875E-02
(PID.TID 0000.0001) %MON ad_dynstat_aduvel_mean       =  -8.3595739773573E-05
(PID.TID 0000.0001) %MON ad_dynstat_aduvel_sd         =   5.0498162355449E-04
(PID.TID 0000.0001) %MON ad_dynstat_aduvel_del2       =   2.3154086522942E-05
(PID.TID 0000.0001) %MON ad_dynstat_advvel_max        =   1.6646155397343E-02
(PID.TID 0000.0001) %MON ad_dynstat_advvel_min        =  -2.4746061435334E-02
(PID.TID 0000.0001) %MON ad_dynstat_advvel_mean       =   8.7901939270064E-05
(PID.TID 0000.0001) %MON ad_dynstat_advvel_sd         =   1.4068021447129E-03
(PID.TID 0000.0001) %MON ad_dynstat_advvel_del2       =   1.0837919674697E-04
(PID.TID 0000.0001) %MON ad_dynstat_adwvel_max        =   2.2177346707970E+00
(PID.TID 0000.0001) %MON ad_dynstat_adwvel_min        =  -1.2286760319195E+00
(PID.TID 0000.0001) %MON ad_dynstat_adwvel_mean       =   1.8389086069252E-04
(PID.TID 0000.0001) %MON ad_dynstat_adwvel_sd         =   3.8063359547634E-02
(PID.TID 0000.0001) %MON ad_dynstat_adwvel_del2       =   2.0249384526309E-03
(PID.TID 0000.0001) %MON ad_dynstat_adtheta_max       =   5.1596266295889E-03
(PID.TID 0000.0001) %MON ad_dynstat_adtheta_min       =  -5.4335763093750E-03
(PID.TID 0000.0001) %MON ad_dynstat_adtheta_mean      =   7.7904678320632E-07
(PID.TID 0000.0001) %MON ad_dynstat_adtheta_sd        =   2.0379330572626E-04
(PID.TID 0000.0001) %MON ad_dynstat_adtheta_del2      =   1.1700620551800E-05
(PID.TID 0000.0001) %MON ad_dynstat_adsalt_max        =   2.0273875025317E-02
(PID.TID 0000.0001) %MON ad_dynstat_adsalt_min        =  -2.2397634887070E-02
(PID.TID 0000.0001) %MON ad_dynstat_adsalt_mean       =  -4.3810698230540E-06
(PID.TID 0000.0001) %MON ad_dynstat_adsalt_sd         =   9.2783207670772E-04
(PID.TID 0000.0001) %MON ad_dynstat_adsalt_del2       =   4.9915673015055E-05
(PID.TID 0000.0001) %MON ad_dynstat_adsst_max         =   1.9864527254152E-04
(PID.TID 0000.0001) %MON ad_dynstat_adsst_min         =  -1.7141154683079E-04
(PID.TID 0000.0001) %MON ad_dynstat_adsst_mean        =  -5.3398446942681E-07
(PID.TID 0000.0001) %MON ad_dynstat_adsst_sd          =   1.1531735440812E-05
(PID.TID 0000.0001) %MON ad_dynstat_adsst_del2        =   1.0219405129219E-06
(PID.TID 0000.0001) %MON ad_dynstat_adsss_max         =   4.7345121782629E-04
(PID.TID 0000.0001) %MON ad_dynstat_adsss_min         =  -6.6882825831433E-04
(PID.TID 0000.0001) %MON ad_dynstat_adsss_mean        =   7.5076811400027E-07
(PID.TID 0000.0001) %MON ad_dynstat_adsss_sd          =   3.5613875006724E-05
(PID.TID 0000.0001) %MON ad_dynstat_adsss_del2        =   3.3421947025325E-06
(PID.TID 0000.0001) %MON ad_extforcing_adqnet_max     =   0.0000000000000E+00
(PID.TID 0000.0001) %MON ad_extforcing_adqnet_min     =   0.0000000000000E+00
(PID.TID 0000.0001) %MON ad_extforcing_adqnet_mean    =   0.0000000000000E+00
(PID.TID 0000.0001) %MON ad_extforcing_adqnet_sd      =   0.0000000000000E+00
(PID.TID 0000.0001) %MON ad_extforcing_adqnet_del2    =   0.0000000000000E+00
(PID.TID 0000.0001) %MON ad_extforcing_adempmr_max    =   6.5460498353253E+02
(PID.TID 0000.0001) %MON ad_extforcing_adempmr_min    =  -6.3815592003061E+02
(PID.TID 0000.0001) %MON ad_extforcing_adempmr_mean   =   8.1682485512534E-01
(PID.TID 0000.0001) %MON ad_extforcing_adempmr_sd     =   5.0021529578402E+01
(PID.TID 0000.0001) %MON ad_extforcing_adempmr_del2   =   4.7331412661189E+00
(PID.TID 0000.0001) %MON ad_extforcing_adfu_max       =   0.0000000000000E+00
(PID.TID 0000.0001) %MON ad_extforcing_adfu_min       =   0.0000000000000E+00
(PID.TID 0000.0001) %MON ad_extforcing_adfu_mean      =   0.0000000000000E+00
(PID.TID 0000.0001) %MON ad_extforcing_adfu_sd        =   0.0000000000000E+00
(PID.TID 0000.0001) %MON ad_extforcing_adfu_del2      =   0.0000000000000E+00
(PID.TID 0000.0001) %MON ad_extforcing_adfv_max       =   0.0000000000000E+00
(PID.TID 0000.0001) %MON ad_extforcing_adfv_min       =   0.0000000000000E+00
(PID.TID 0000.0001) %MON ad_extforcing_adfv_mean      =   0.0000000000000E+00
(PID.TID 0000.0001) %MON ad_extforcing_adfv_sd        =   0.0000000000000E+00
(PID.TID 0000.0001) %MON ad_extforcing_adfv_del2      =   0.0000000000000E+00
(PID.TID 0000.0001) %MON ad_advcfl_aduvel_max         =   1.2328239715742E-03
(PID.TID 0000.0001) %MON ad_advcfl_advvel_max         =   2.4038814288876E-03
(PID.TID 0000.0001) %MON ad_advcfl_adwvel_max         =   4.4560994315549E+02
(PID.TID 0000.0001) %MON ad_advcfl_adW_hf_max         =   6.2869144702389E+02
(PID.TID 0000.0001) // =======================================================
(PID.TID 0000.0001) // End MONITOR dynamic field statistics
(PID.TID 0000.0001) // =======================================================
 cg2d: Sum(rhs),rhsMax =  -2.78449138746417E-14  6.04655873957311E-08
(PID.TID 0000.0001) // =======================================================
(PID.TID 0000.0001) // Begin MONITOR dynamic field statistics
(PID.TID 0000.0001) // =======================================================
(PID.TID 0000.0001) %MON ad_time_tsnumber             =                    73
(PID.TID 0000.0001) %MON ad_time_secondsf             =   3.1536000000000E+06
(PID.TID 0000.0001) %MON ad_dynstat_adeta_max         =   5.6393489082050E-03
(PID.TID 0000.0001) %MON ad_dynstat_adeta_min         =  -8.5972808399547E-03
(PID.TID 0000.0001) %MON ad_dynstat_adeta_mean        =   1.0615045022467E-05
(PID.TID 0000.0001) %MON ad_dynstat_adeta_sd          =   4.5438503416423E-04
(PID.TID 0000.0001) %MON ad_dynstat_adeta_del2        =   3.2601533122228E-05
(PID.TID 0000.0001) %MON ad_dynstat_aduvel_max        =   7.8572227954970E-03
(PID.TID 0000.0001) %MON ad_dynstat_aduvel_min        =  -1.1393716763852E-02
(PID.TID 0000.0001) %MON ad_dynstat_aduvel_mean       =  -8.7003486679577E-05
(PID.TID 0000.0001) %MON ad_dynstat_aduvel_sd         =   5.1211174036141E-04
(PID.TID 0000.0001) %MON ad_dynstat_aduvel_del2       =   2.3451795411840E-05
(PID.TID 0000.0001) %MON ad_dynstat_advvel_max        =   1.6519600962113E-02
(PID.TID 0000.0001) %MON ad_dynstat_advvel_min        =  -2.5380971858276E-02
(PID.TID 0000.0001) %MON ad_dynstat_advvel_mean       =   8.9485508762933E-05
(PID.TID 0000.0001) %MON ad_dynstat_advvel_sd         =   1.4309584073744E-03
(PID.TID 0000.0001) %MON ad_dynstat_advvel_del2       =   1.0741847675907E-04
(PID.TID 0000.0001) %MON ad_dynstat_adwvel_max        =   2.2143158342369E+00
(PID.TID 0000.0001) %MON ad_dynstat_adwvel_min        =  -1.2267492875333E+00
(PID.TID 0000.0001) %MON ad_dynstat_adwvel_mean       =   1.9251677898983E-04
(PID.TID 0000.0001) %MON ad_dynstat_adwvel_sd         =   3.7167583729178E-02
(PID.TID 0000.0001) %MON ad_dynstat_adwvel_del2       =   1.9351782749302E-03
(PID.TID 0000.0001) %MON ad_dynstat_adtheta_max       =   5.1473943601121E-03
(PID.TID 0000.0001) %MON ad_dynstat_adtheta_min       =  -5.4171629853404E-03
(PID.TID 0000.0001) %MON ad_dynstat_adtheta_mean      =   7.5762116926498E-07
(PID.TID 0000.0001) %MON ad_dynstat_adtheta_sd        =   2.0173966349293E-04
(PID.TID 0000.0001) %MON ad_dynstat_adtheta_del2      =   1.1389234554530E-05
(PID.TID 0000.0001) %MON ad_dynstat_adsalt_max        =   2.0209211184905E-02
(PID.TID 0000.0001) %MON ad_dynstat_adsalt_min        =  -2.2344655165173E-02
(PID.TID 0000.0001) %MON ad_dynstat_adsalt_mean       =  -4.2567338578914E-06
(PID.TID 0000.0001) %MON ad_dynstat_adsalt_sd         =   9.1939860921016E-04
(PID.TID 0000.0001) %MON ad_dynstat_adsalt_del2       =   4.8723004018004E-05
(PID.TID 0000.0001) %MON ad_dynstat_adsst_max         =   1.9871081143523E-04
(PID.TID 0000.0001) %MON ad_dynstat_adsst_min         =  -1.7107385797180E-04
(PID.TID 0000.0001) %MON ad_dynstat_adsst_mean        =  -5.2417630834172E-07
(PID.TID 0000.0001) %MON ad_dynstat_adsst_sd          =   1.1323958311798E-05
(PID.TID 0000.0001) %MON ad_dynstat_adsst_del2        =   9.9700379715661E-07
(PID.TID 0000.0001) %MON ad_dynstat_adsss_max         =   4.7266083542458E-04
(PID.TID 0000.0001) %MON ad_dynstat_adsss_min         =  -6.7160730235053E-04
(PID.TID 0000.0001) %MON ad_dynstat_adsss_mean        =   7.0961625921684E-07
(PID.TID 0000.0001) %MON ad_dynstat_adsss_sd          =   3.5090056015116E-05
(PID.TID 0000.0001) %MON ad_dynstat_adsss_del2        =   3.2776775001358E-06
(PID.TID 0000.0001) %MON ad_extforcing_adqnet_max     =   0.0000000000000E+00
(PID.TID 0000.0001) %MON ad_extforcing_adqnet_min     =   0.0000000000000E+00
(PID.TID 0000.0001) %MON ad_extforcing_adqnet_mean    =   0.0000000000000E+00
(PID.TID 0000.0001) %MON ad_extforcing_adqnet_sd      =   0.0000000000000E+00
(PID.TID 0000.0001) %MON ad_extforcing_adqnet_del2    =   0.0000000000000E+00
(PID.TID 0000.0001) %MON ad_extforcing_adempmr_max    =   6.7137109683658E+02
(PID.TID 0000.0001) %MON ad_extforcing_adempmr_min    =  -6.6523563599240E+02
(PID.TID 0000.0001) %MON ad_extforcing_adempmr_mean   =   8.2710554701664E-01
(PID.TID 0000.0001) %MON ad_extforcing_adempmr_sd     =   5.1416773956847E+01
(PID.TID 0000.0001) %MON ad_extforcing_adempmr_del2   =   4.8510350616005E+00
(PID.TID 0000.0001) %MON ad_extforcing_adfu_max       =   0.0000000000000E+00
(PID.TID 0000.0001) %MON ad_extforcing_adfu_min       =   0.0000000000000E+00
(PID.TID 0000.0001) %MON ad_extforcing_adfu_mean      =   0.0000000000000E+00
(PID.TID 0000.0001) %MON ad_extforcing_adfu_sd        =   0.0000000000000E+00
(PID.TID 0000.0001) %MON ad_extforcing_adfu_del2      =   0.0000000000000E+00
(PID.TID 0000.0001) %MON ad_extforcing_adfv_max       =   0.0000000000000E+00
(PID.TID 0000.0001) %MON ad_extforcing_adfv_min       =   0.0000000000000E+00
(PID.TID 0000.0001) %MON ad_extforcing_adfv_mean      =   0.0000000000000E+00
(PID.TID 0000.0001) %MON ad_extforcing_adfv_sd        =   0.0000000000000E+00
(PID.TID 0000.0001) %MON ad_extforcing_adfv_del2      =   0.0000000000000E+00
(PID.TID 0000.0001) %MON ad_advcfl_aduvel_max         =   1.2780320440345E-03
(PID.TID 0000.0001) %MON ad_advcfl_advvel_max         =   2.4655578851069E-03
(PID.TID 0000.0001) %MON ad_advcfl_adwvel_max         =   4.4492299553039E+02
(PID.TID 0000.0001) %MON ad_advcfl_adW_hf_max         =   6.2704534217707E+02
(PID.TID 0000.0001) // =======================================================
(PID.TID 0000.0001) // End MONITOR dynamic field statistics
(PID.TID 0000.0001) // =======================================================
 cg2d: Sum(rhs),rhsMax =  -1.89501192515706E-14  6.04106487231505E-08
time,SST,SSS,fu,fv,Q,E-P,i0,i1,a,b =   2.9808E+06 -1.0258E-02  3.4524E+01 -2.1854E-02 -3.1503E-02  2.4933E+02  0.0000E+00     1     2  6.5000E-01  3.5000E-01
time,fu0,fu1,fu =   2.9808E+06 -3.5633E-02 -1.4435E-02 -2.1854E-02  6.500000000000000E-01  3.500000000000000E-01
 cg2d: Sum(rhs),rhsMax =   3.73369390960221E-12  8.07892755116583E+00
time,SST,SSS,fu,fv,Q,E-P,i0,i1,a,b =   3.0240E+06 -3.5096E-02  3.4519E+01 -2.1501E-02 -3.0843E-02  2.4891E+02  0.0000E+00     1     2  6.6667E-01  3.3333E-01
time,fu0,fu1,fu =   3.0240E+06 -3.5633E-02 -1.4435E-02 -2.1501E-02  6.666666666666666E-01  3.333333333333334E-01
 cg2d: Sum(rhs),rhsMax =   3.43072792396981E-12  7.98205113094413E+00
time,SST,SSS,fu,fv,Q,E-P,i0,i1,a,b =   3.0672E+06 -5.9934E-02  3.4514E+01 -2.1147E-02 -3.0182E-02  2.4849E+02  0.0000E+00     1     2  6.8333E-01  3.1667E-01
time,fu0,fu1,fu =   3.0672E+06 -3.5633E-02 -1.4435E-02 -2.1147E-02  6.833333333333333E-01  3.166666666666667E-01
 cg2d: Sum(rhs),rhsMax =   3.54863360918500E-12  8.00388417689159E+00
(PID.TID 0000.0001) // =======================================================
(PID.TID 0000.0001) // Begin MONITOR dynamic field statistics
(PID.TID 0000.0001) // =======================================================
(PID.TID 0000.0001) %MON ad_time_tsnumber             =                    72
(PID.TID 0000.0001) %MON ad_time_secondsf             =   3.1104000000000E+06
(PID.TID 0000.0001) %MON ad_dynstat_adeta_max         =   5.5836138936463E-03
(PID.TID 0000.0001) %MON ad_dynstat_adeta_min         =  -8.5151957968903E-03
(PID.TID 0000.0001) %MON ad_dynstat_adeta_mean        =   1.0350336445598E-05
(PID.TID 0000.0001) %MON ad_dynstat_adeta_sd          =   4.4881026288053E-04
(PID.TID 0000.0001) %MON ad_dynstat_adeta_del2        =   3.1976816167933E-05
(PID.TID 0000.0001) %MON ad_dynstat_aduvel_max        =   7.8779376481097E-03
(PID.TID 0000.0001) %MON ad_dynstat_aduvel_min        =  -1.1685117577021E-02
(PID.TID 0000.0001) %MON ad_dynstat_aduvel_mean       =  -8.9694356076081E-05
(PID.TID 0000.0001) %MON ad_dynstat_aduvel_sd         =   5.1799726478105E-04
(PID.TID 0000.0001) %MON ad_dynstat_aduvel_del2       =   2.3747560719834E-05
(PID.TID 0000.0001) %MON ad_dynstat_advvel_max        =   1.6317901115539E-02
(PID.TID 0000.0001) %MON ad_dynstat_advvel_min        =  -2.5976433981161E-02
(PID.TID 0000.0001) %MON ad_dynstat_advvel_mean       =   9.0198270394858E-05
(PID.TID 0000.0001) %MON ad_dynstat_advvel_sd         =   1.4532832244972E-03
(PID.TID 0000.0001) %MON ad_dynstat_advvel_del2       =   1.0605820331593E-04
(PID.TID 0000.0001) %MON ad_dynstat_adwvel_max        =   2.2085702733324E+00
(PID.TID 0000.0001) %MON ad_dynstat_adwvel_min        =  -1.2239873815908E+00
(PID.TID 0000.0001) %MON ad_dynstat_adwvel_mean       =   2.0108087827012E-04
(PID.TID 0000.0001) %MON ad_dynstat_adwvel_sd         =   3.6332606453352E-02
(PID.TID 0000.0001) %MON ad_dynstat_adwvel_del2       =   1.8506898918688E-03
(PID.TID 0000.0001) %MON ad_dynstat_adtheta_max       =   5.1321267920483E-03
(PID.TID 0000.0001) %MON ad_dynstat_adtheta_min       =  -5.3954883548953E-03
(PID.TID 0000.0001) %MON ad_dynstat_adtheta_mean      =   7.3518879175234E-07
(PID.TID 0000.0001) %MON ad_dynstat_adtheta_sd        =   1.9975537492581E-04
(PID.TID 0000.0001) %MON ad_dynstat_adtheta_del2      =   1.1074881572656E-05
(PID.TID 0000.0001) %MON ad_dynstat_adsalt_max        =   2.0125858452880E-02
(PID.TID 0000.0001) %MON ad_dynstat_adsalt_min        =  -2.2277883750758E-02
(PID.TID 0000.0001) %MON ad_dynstat_adsalt_mean       =  -4.1256576248663E-06
(PID.TID 0000.0001) %MON ad_dynstat_adsalt_sd         =   9.1121682845253E-04
(PID.TID 0000.0001) %MON ad_dynstat_adsalt_del2       =   4.7500999993662E-05
(PID.TID 0000.0001) %MON ad_dynstat_adsst_max         =   1.9843147911913E-04
(PID.TID 0000.0001) %MON ad_dynstat_adsst_min         =  -1.7067117522223E-04
(PID.TID 0000.0001) %MON ad_dynstat_adsst_mean        =  -5.2009407831045E-07
(PID.TID 0000.0001) %MON ad_dynstat_adsst_sd          =   1.1180649654489E-05
(PID.TID 0000.0001) %MON ad_dynstat_adsst_del2        =   9.7649314801815E-07
(PID.TID 0000.0001) %MON ad_dynstat_adsss_max         =   4.7167692960661E-04
(PID.TID 0000.0001) %MON ad_dynstat_adsss_min         =  -6.7331197859459E-04
(PID.TID 0000.0001) %MON ad_dynstat_adsss_mean        =   6.8543137865772E-07
(PID.TID 0000.0001) %MON ad_dynstat_adsss_sd          =   3.4745091576619E-05
(PID.TID 0000.0001) %MON ad_dynstat_adsss_del2        =   3.2288353892427E-06
(PID.TID 0000.0001) %MON ad_extforcing_adqnet_max     =   0.0000000000000E+00
(PID.TID 0000.0001) %MON ad_extforcing_adqnet_min     =   0.0000000000000E+00
(PID.TID 0000.0001) %MON ad_extforcing_adqnet_mean    =   0.0000000000000E+00
(PID.TID 0000.0001) %MON ad_extforcing_adqnet_sd      =   0.0000000000000E+00
(PID.TID 0000.0001) %MON ad_extforcing_adqnet_del2    =   0.0000000000000E+00
(PID.TID 0000.0001) %MON ad_extforcing_adempmr_max    =   6.8893802345982E+02
(PID.TID 0000.0001) %MON ad_extforcing_adempmr_min    =  -6.9236489676823E+02
(PID.TID 0000.0001) %MON ad_extforcing_adempmr_mean   =   8.3707169456141E-01
(PID.TID 0000.0001) %MON ad_extforcing_adempmr_sd     =   5.2790386833565E+01
(PID.TID 0000.0001) %MON ad_extforcing_adempmr_del2   =   4.9667872742422E+00
(PID.TID 0000.0001) %MON ad_extforcing_adfu_max       =   0.0000000000000E+00
(PID.TID 0000.0001) %MON ad_extforcing_adfu_min       =   0.0000000000000E+00
(PID.TID 0000.0001) %MON ad_extforcing_adfu_mean      =   0.0000000000000E+00
(PID.TID 0000.0001) %MON ad_extforcing_adfu_sd        =   0.0000000000000E+00
(PID.TID 0000.0001) %MON ad_extforcing_adfu_del2      =   0.0000000000000E+00
(PID.TID 0000.0001) %MON ad_extforcing_adfv_max       =   0.0000000000000E+00
(PID.TID 0000.0001) %MON ad_extforcing_adfv_min       =   0.0000000000000E+00
(PID.TID 0000.0001) %MON ad_extforcing_adfv_mean      =   0.0000000000000E+00
(PID.TID 0000.0001) %MON ad_extforcing_adfv_sd        =   0.0000000000000E+00
(PID.TID 0000.0001) %MON ad_extforcing_adfv_del2      =   0.0000000000000E+00
(PID.TID 0000.0001) %MON ad_advcfl_aduvel_max         =   1.3107184434428E-03
(PID.TID 0000.0001) %MON ad_advcfl_advvel_max         =   2.5234022553130E-03
(PID.TID 0000.0001) %MON ad_advcfl_adwvel_max         =   4.4376853864167E+02
(PID.TID 0000.0001) %MON ad_advcfl_adW_hf_max         =   6.2491053093567E+02
(PID.TID 0000.0001) // =======================================================
(PID.TID 0000.0001) // End MONITOR dynamic field statistics
(PID.TID 0000.0001) // =======================================================
 cg2d: Sum(rhs),rhsMax =   1.15862180960491E-14  6.03186979345262E-08
(PID.TID 0000.0001) // =======================================================
(PID.TID 0000.0001) // Begin MONITOR dynamic field statistics
(PID.TID 0000.0001) // =======================================================
(PID.TID 0000.0001) %MON ad_time_tsnumber             =                    71
(PID.TID 0000.0001) %MON ad_time_secondsf             =   3.0672000000000E+06
(PID.TID 0000.0001) %MON ad_dynstat_adeta_max         =   5.5227423121682E-03
(PID.TID 0000.0001) %MON ad_dynstat_adeta_min         =  -8.4283290553327E-03
(PID.TID 0000.0001) %MON ad_dynstat_adeta_mean        =   1.0096674340621E-05
(PID.TID 0000.0001) %MON ad_dynstat_adeta_sd          =   4.4333806910062E-04
(PID.TID 0000.0001) %MON ad_dynstat_adeta_del2        =   3.1353345228023E-05
(PID.TID 0000.0001) %MON ad_dynstat_aduvel_max        =   7.8634300361628E-03
(PID.TID 0000.0001) %MON ad_dynstat_aduvel_min        =  -1.1860151358904E-02
(PID.TID 0000.0001) %MON ad_dynstat_aduvel_mean       =  -9.1625064182009E-05
(PID.TID 0000.0001) %MON ad_dynstat_aduvel_sd         =   5.2258863145817E-04
(PID.TID 0000.0001) %MON ad_dynstat_aduvel_del2       =   2.4101431278600E-05
(PID.TID 0000.0001) %MON ad_dynstat_advvel_max        =   1.6244493329092E-02
(PID.TID 0000.0001) %MON ad_dynstat_advvel_min        =  -2.6333089296317E-02
(PID.TID 0000.0001) %MON ad_dynstat_advvel_mean       =   9.0053822363258E-05
(PID.TID 0000.0001) %MON ad_dynstat_advvel_sd         =   1.4737868599741E-03
(PID.TID 0000.0001) %MON ad_dynstat_advvel_del2       =   1.0453386662084E-04
(PID.TID 0000.0001) %MON ad_dynstat_adwvel_max        =   2.2008674077550E+00
(PID.TID 0000.0001) %MON ad_dynstat_adwvel_min        =  -1.2205854439950E+00
(PID.TID 0000.0001) %MON ad_dynstat_adwvel_mean       =   2.0991963417296E-04
(PID.TID 0000.0001) %MON ad_dynstat_adwvel_sd         =   3.5564035051777E-02
(PID.TID 0000.0001) %MON ad_dynstat_adwvel_del2       =   1.7740051770290E-03
(PID.TID 0000.0001) %MON ad_dynstat_adtheta_max       =   5.1147273845015E-03
(PID.TID 0000.0001) %MON ad_dynstat_adtheta_min       =  -5.3695387837878E-03
(PID.TID 0000.0001) %MON ad_dynstat_adtheta_mean      =   7.1205797173187E-07
(PID.TID 0000.0001) %MON ad_dynstat_adtheta_sd        =   1.9781872136416E-04
(PID.TID 0000.0001) %MON ad_dynstat_adtheta_del2      =   1.0758809879372E-05
(PID.TID 0000.0001) %MON ad_dynstat_adsalt_max        =   2.0027516968480E-02
(PID.TID 0000.0001) %MON ad_dynstat_adsalt_min        =  -2.2201253197536E-02
(PID.TID 0000.0001) %MON ad_dynstat_adsalt_mean       =  -3.9895863472586E-06
(PID.TID 0000.0001) %MON ad_dynstat_adsalt_sd         =   9.0316252756712E-04
(PID.TID 0000.0001) %MON ad_dynstat_adsalt_del2       =   4.6256292630296E-05
(PID.TID 0000.0001) %MON ad_dynstat_adsst_max         =   1.9785722824361E-04
(PID.TID 0000.0001) %MON ad_dynstat_adsst_min         =  -1.7025315325187E-04
(PID.TID 0000.0001) %MON ad_dynstat_adsst_mean        =  -5.0941936609099E-07
(PID.TID 0000.0001) %MON ad_dynstat_adsst_sd          =   1.0987044990738E-05
(PID.TID 0000.0001) %MON ad_dynstat_adsst_del2        =   9.5425993530949E-07
(PID.TID 0000.0001) %MON ad_dynstat_adsss_max         =   4.7063926890466E-04
(PID.TID 0000.0001) %MON ad_dynstat_adsss_min         =  -6.7408867360842E-04
(PID.TID 0000.0001) %MON ad_dynstat_adsss_mean        =   6.4180691062521E-07
(PID.TID 0000.0001) %MON ad_dynstat_adsss_sd          =   3.4257566654375E-05
(PID.TID 0000.0001) %MON ad_dynstat_adsss_del2        =   3.1772269959458E-06
(PID.TID 0000.0001) %MON ad_extforcing_adqnet_max     =   0.0000000000000E+00
(PID.TID 0000.0001) %MON ad_extforcing_adqnet_min     =   0.0000000000000E+00
(PID.TID 0000.0001) %MON ad_extforcing_adqnet_mean    =   0.0000000000000E+00
(PID.TID 0000.0001) %MON ad_extforcing_adqnet_sd      =   0.0000000000000E+00
(PID.TID 0000.0001) %MON ad_extforcing_adqnet_del2    =   0.0000000000000E+00
(PID.TID 0000.0001) %MON ad_extforcing_adempmr_max    =   7.0558752845396E+02
(PID.TID 0000.0001) %MON ad_extforcing_adempmr_min    =  -7.1951002232693E+02
(PID.TID 0000.0001) %MON ad_extforcing_adempmr_mean   =   8.4574944369532E-01
(PID.TID 0000.0001) %MON ad_extforcing_adempmr_sd     =   5.4129964850609E+01
(PID.TID 0000.0001) %MON ad_extforcing_adempmr_del2   =   5.0791737091663E+00
(PID.TID 0000.0001) %MON ad_extforcing_adfu_max       =   0.0000000000000E+00
(PID.TID 0000.0001) %MON ad_extforcing_adfu_min       =   0.0000000000000E+00
(PID.TID 0000.0001) %MON ad_extforcing_adfu_mean      =   0.0000000000000E+00
(PID.TID 0000.0001) %MON ad_extforcing_adfu_sd        =   0.0000000000000E+00
(PID.TID 0000.0001) %MON ad_extforcing_adfu_del2      =   0.0000000000000E+00
(PID.TID 0000.0001) %MON ad_extforcing_adfv_max       =   0.0000000000000E+00
(PID.TID 0000.0001) %MON ad_extforcing_adfv_min       =   0.0000000000000E+00
(PID.TID 0000.0001) %MON ad_extforcing_adfv_mean      =   0.0000000000000E+00
(PID.TID 0000.0001) %MON ad_extforcing_adfv_sd        =   0.0000000000000E+00
(PID.TID 0000.0001) %MON ad_extforcing_adfv_del2      =   0.0000000000000E+00
(PID.TID 0000.0001) %MON ad_advcfl_aduvel_max         =   1.3303519648538E-03
(PID.TID 0000.0001) %MON ad_advcfl_advvel_max         =   2.5580484591487E-03
(PID.TID 0000.0001) %MON ad_advcfl_adwvel_max         =   4.4222080006985E+02
(PID.TID 0000.0001) %MON ad_advcfl_adW_hf_max         =   6.2240650241407E+02
(PID.TID 0000.0001) // =======================================================
(PID.TID 0000.0001) // End MONITOR dynamic field statistics
(PID.TID 0000.0001) // =======================================================
 cg2d: Sum(rhs),rhsMax =   5.67098451531578E-14  6.01964425991698E-08
 myIter=  70
 ph-mnc in addummy param  T
 ph-mnc in addummy myiter  70
(PID.TID 0000.0001) // =======================================================
(PID.TID 0000.0001) // Begin MONITOR dynamic field statistics
(PID.TID 0000.0001) // =======================================================
(PID.TID 0000.0001) %MON ad_time_tsnumber             =                    70
(PID.TID 0000.0001) %MON ad_time_secondsf             =   3.0240000000000E+06
(PID.TID 0000.0001) %MON ad_dynstat_adeta_max         =   5.4568992940341E-03
(PID.TID 0000.0001) %MON ad_dynstat_adeta_min         =  -8.3380701176958E-03
(PID.TID 0000.0001) %MON ad_dynstat_adeta_mean        =   9.8014175025818E-06
(PID.TID 0000.0001) %MON ad_dynstat_adeta_sd          =   4.3790712559236E-04
(PID.TID 0000.0001) %MON ad_dynstat_adeta_del2        =   3.0614140575695E-05
(PID.TID 0000.0001) %MON ad_dynstat_aduvel_max        =   7.8122625597253E-03
(PID.TID 0000.0001) %MON ad_dynstat_aduvel_min        =  -1.1915576271066E-02
(PID.TID 0000.0001) %MON ad_dynstat_aduvel_mean       =  -9.6191669338007E-05
(PID.TID 0000.0001) %MON ad_dynstat_aduvel_sd         =   5.2720578654880E-04
(PID.TID 0000.0001) %MON ad_dynstat_aduvel_del2       =   2.4096658443892E-05
(PID.TID 0000.0001) %MON ad_dynstat_advvel_max        =   1.6009096452951E-02
(PID.TID 0000.0001) %MON ad_dynstat_advvel_min        =  -2.6452963776131E-02
(PID.TID 0000.0001) %MON ad_dynstat_advvel_mean       =   8.9109748629214E-05
(PID.TID 0000.0001) %MON ad_dynstat_advvel_sd         =   1.4924949012962E-03
(PID.TID 0000.0001) %MON ad_dynstat_advvel_del2       =   1.0290266024272E-04
(PID.TID 0000.0001) %MON ad_dynstat_adwvel_max        =   2.1915965284280E+00
(PID.TID 0000.0001) %MON ad_dynstat_adwvel_min        =  -1.2167443000017E+00
(PID.TID 0000.0001) %MON ad_dynstat_adwvel_mean       =   2.1891080659588E-04
(PID.TID 0000.0001) %MON ad_dynstat_adwvel_sd         =   3.4864478786160E-02
(PID.TID 0000.0001) %MON ad_dynstat_adwvel_del2       =   1.7064976780064E-03
(PID.TID 0000.0001) %MON ad_dynstat_adtheta_max       =   5.0960803077735E-03
(PID.TID 0000.0001) %MON ad_dynstat_adtheta_min       =  -5.3403388125547E-03
(PID.TID 0000.0001) %MON ad_dynstat_adtheta_mean      =   6.7293130504063E-07
(PID.TID 0000.0001) %MON ad_dynstat_adtheta_sd        =   1.9592272244866E-04
(PID.TID 0000.0001) %MON ad_dynstat_adtheta_del2      =   1.0438697456021E-05
(PID.TID 0000.0001) %MON ad_dynstat_adsalt_max        =   1.9918002983206E-02
(PID.TID 0000.0001) %MON ad_dynstat_adsalt_min        =  -2.2118625978236E-02
(PID.TID 0000.0001) %MON ad_dynstat_adsalt_mean       =  -3.7623164226747E-06
(PID.TID 0000.0001) %MON ad_dynstat_adsalt_sd         =   8.9518964978107E-04
(PID.TID 0000.0001) %MON ad_dynstat_adsalt_del2       =   4.4936072393426E-05
(PID.TID 0000.0001) %MON ad_dynstat_adsst_max         =   1.9703790042478E-04
(PID.TID 0000.0001) %MON ad_dynstat_adsst_min         =  -1.6986545303434E-04
(PID.TID 0000.0001) %MON ad_dynstat_adsst_mean        =  -5.0101811961680E-07
(PID.TID 0000.0001) %MON ad_dynstat_adsst_sd          =   1.0778252166678E-05
(PID.TID 0000.0001) %MON ad_dynstat_adsst_del2        =   9.2710530437285E-07
(PID.TID 0000.0001) %MON ad_dynstat_adsss_max         =   4.6967674532106E-04
(PID.TID 0000.0001) %MON ad_dynstat_adsss_min         =  -6.7408597428627E-04
(PID.TID 0000.0001) %MON ad_dynstat_adsss_mean        =   6.0951605883573E-07
(PID.TID 0000.0001) %MON ad_dynstat_adsss_sd          =   3.3727232026412E-05
(PID.TID 0000.0001) %MON ad_dynstat_adsss_del2        =   3.0820512056083E-06
(PID.TID 0000.0001) %MON ad_extforcing_adqnet_max     =   0.0000000000000E+00
(PID.TID 0000.0001) %MON ad_extforcing_adqnet_min     =   0.0000000000000E+00
(PID.TID 0000.0001) %MON ad_extforcing_adqnet_mean    =   0.0000000000000E+00
(PID.TID 0000.0001) %MON ad_extforcing_adqnet_sd      =   0.0000000000000E+00
(PID.TID 0000.0001) %MON ad_extforcing_adqnet_del2    =   0.0000000000000E+00
(PID.TID 0000.0001) %MON ad_extforcing_adempmr_max    =   7.2125198026368E+02
(PID.TID 0000.0001) %MON ad_extforcing_adempmr_min    =  -7.4664243516077E+02
(PID.TID 0000.0001) %MON ad_extforcing_adempmr_mean   =   8.5293858508032E-01
(PID.TID 0000.0001) %MON ad_extforcing_adempmr_sd     =   5.5437657980513E+01
(PID.TID 0000.0001) %MON ad_extforcing_adempmr_del2   =   5.1889382615547E+00
(PID.TID 0000.0001) %MON ad_extforcing_adfu_max       =   0.0000000000000E+00
(PID.TID 0000.0001) %MON ad_extforcing_adfu_min       =   0.0000000000000E+00
(PID.TID 0000.0001) %MON ad_extforcing_adfu_mean      =   0.0000000000000E+00
(PID.TID 0000.0001) %MON ad_extforcing_adfu_sd        =   0.0000000000000E+00
(PID.TID 0000.0001) %MON ad_extforcing_adfu_del2      =   0.0000000000000E+00
(PID.TID 0000.0001) %MON ad_extforcing_adfv_max       =   0.0000000000000E+00
(PID.TID 0000.0001) %MON ad_extforcing_adfv_min       =   0.0000000000000E+00
(PID.TID 0000.0001) %MON ad_extforcing_adfv_mean      =   0.0000000000000E+00
(PID.TID 0000.0001) %MON ad_extforcing_adfv_sd        =   0.0000000000000E+00
(PID.TID 0000.0001) %MON ad_extforcing_adfv_del2      =   0.0000000000000E+00
(PID.TID 0000.0001) %MON ad_advcfl_aduvel_max         =   1.3365689715820E-03
(PID.TID 0000.0001) %MON ad_advcfl_advvel_max         =   2.5696933035849E-03
(PID.TID 0000.0001) %MON ad_advcfl_adwvel_max         =   4.4035800013066E+02
(PID.TID 0000.0001) %MON ad_advcfl_adW_hf_max         =   6.1965254567656E+02
(PID.TID 0000.0001) // =======================================================
(PID.TID 0000.0001) // End MONITOR dynamic field statistics
(PID.TID 0000.0001) // =======================================================
 cg2d: Sum(rhs),rhsMax =   8.06412228659958E-14  6.00504854205077E-08
time,SST,SSS,fu,fv,Q,E-P,i0,i1,a,b =   2.8512E+06  6.4256E-02  3.4538E+01 -2.2914E-02 -3.3484E-02  2.5060E+02  0.0000E+00     1     2  6.0000E-01  4.0000E-01
time,fu0,fu1,fu =   2.8512E+06 -3.5633E-02 -1.4435E-02 -2.2914E-02  6.000000000000000E-01  4.000000000000000E-01
 cg2d: Sum(rhs),rhsMax =   3.94637794665087E-12  1.07539403354917E+01
time,SST,SSS,fu,fv,Q,E-P,i0,i1,a,b =   2.8944E+06  3.9418E-02  3.4534E+01 -2.2561E-02 -3.2824E-02  2.5018E+02  0.0000E+00     1     2  6.1667E-01  3.8333E-01
time,fu0,fu1,fu =   2.8944E+06 -3.5633E-02 -1.4435E-02 -2.2561E-02  6.166666666666667E-01  3.833333333333333E-01
 cg2d: Sum(rhs),rhsMax =   3.90760340751584E-12  9.88730994742754E+00
time,SST,SSS,fu,fv,Q,E-P,i0,i1,a,b =   2.9376E+06  1.4580E-02  3.4529E+01 -2.2207E-02 -3.2163E-02  2.4975E+02  0.0000E+00     1     2  6.3333E-01  3.6667E-01
time,fu0,fu1,fu =   2.9376E+06 -3.5633E-02 -1.4435E-02 -2.2207E-02  6.333333333333333E-01  3.666666666666667E-01
 cg2d: Sum(rhs),rhsMax =   3.73100855766140E-12  8.98660434991358E+00
(PID.TID 0000.0001) // =======================================================
(PID.TID 0000.0001) // Begin MONITOR dynamic field statistics
(PID.TID 0000.0001) // =======================================================
(PID.TID 0000.0001) %MON ad_time_tsnumber             =                    69
(PID.TID 0000.0001) %MON ad_time_secondsf             =   2.9808000000000E+06
(PID.TID 0000.0001) %MON ad_dynstat_adeta_max         =   5.3865872902752E-03
(PID.TID 0000.0001) %MON ad_dynstat_adeta_min         =  -8.2457885579013E-03
(PID.TID 0000.0001) %MON ad_dynstat_adeta_mean        =   9.6345147138898E-06
(PID.TID 0000.0001) %MON ad_dynstat_adeta_sd          =   4.3273805393769E-04
(PID.TID 0000.0001) %MON ad_dynstat_adeta_del2        =   3.0296185708427E-05
(PID.TID 0000.0001) %MON ad_dynstat_aduvel_max        =   7.7231108776135E-03
(PID.TID 0000.0001) %MON ad_dynstat_aduvel_min        =  -1.1849803173526E-02
(PID.TID 0000.0001) %MON ad_dynstat_aduvel_mean       =  -9.3077468611974E-05
(PID.TID 0000.0001) %MON ad_dynstat_aduvel_sd         =   5.2785235602779E-04
(PID.TID 0000.0001) %MON ad_dynstat_aduvel_del2       =   2.4819363200847E-05
(PID.TID 0000.0001) %MON ad_dynstat_advvel_max        =   1.6133854659424E-02
(PID.TID 0000.0001) %MON ad_dynstat_advvel_min        =  -2.6341461284734E-02
(PID.TID 0000.0001) %MON ad_dynstat_advvel_mean       =   8.7306150694085E-05
(PID.TID 0000.0001) %MON ad_dynstat_advvel_sd         =   1.5093151409388E-03
(PID.TID 0000.0001) %MON ad_dynstat_advvel_del2       =   1.0139143972708E-04
(PID.TID 0000.0001) %MON ad_dynstat_adwvel_max        =   2.1811622054884E+00
(PID.TID 0000.0001) %MON ad_dynstat_adwvel_min        =  -1.2126542435862E+00
(PID.TID 0000.0001) %MON ad_dynstat_adwvel_mean       =   2.2795636042501E-04
(PID.TID 0000.0001) %MON ad_dynstat_adwvel_sd         =   3.4236055663441E-02
(PID.TID 0000.0001) %MON ad_dynstat_adwvel_del2       =   1.6467451657474E-03
(PID.TID 0000.0001) %MON ad_dynstat_adtheta_max       =   5.0770425531927E-03
(PID.TID 0000.0001) %MON ad_dynstat_adtheta_min       =  -5.3089396785913E-03
(PID.TID 0000.0001) %MON ad_dynstat_adtheta_mean      =   6.6528416575500E-07
(PID.TID 0000.0001) %MON ad_dynstat_adtheta_sd        =   1.9407709431237E-04
(PID.TID 0000.0001) %MON ad_dynstat_adtheta_del2      =   1.0136101616999E-05
(PID.TID 0000.0001) %MON ad_dynstat_adsalt_max        =   1.9801205683326E-02
(PID.TID 0000.0001) %MON ad_dynstat_adsalt_min        =  -2.2033757702621E-02
(PID.TID 0000.0001) %MON ad_dynstat_adsalt_mean       =  -3.7106899692168E-06
(PID.TID 0000.0001) %MON ad_dynstat_adsalt_sd         =   8.8733507885276E-04
(PID.TID 0000.0001) %MON ad_dynstat_adsalt_del2       =   4.3728089497234E-05
(PID.TID 0000.0001) %MON ad_dynstat_adsst_max         =   1.9602253398368E-04
(PID.TID 0000.0001) %MON ad_dynstat_adsst_min         =  -1.6954777905057E-04
(PID.TID 0000.0001) %MON ad_dynstat_adsst_mean        =  -4.8618306387692E-07
(PID.TID 0000.0001) %MON ad_dynstat_adsst_sd          =   1.0610529417127E-05
(PID.TID 0000.0001) %MON ad_dynstat_adsst_del2        =   9.1532506429533E-07
(PID.TID 0000.0001) %MON ad_dynstat_adsss_max         =   4.6890187905796E-04
(PID.TID 0000.0001) %MON ad_dynstat_adsss_min         =  -6.7345226582963E-04
(PID.TID 0000.0001) %MON ad_dynstat_adsss_mean        =   5.4867559084529E-07
(PID.TID 0000.0001) %MON ad_dynstat_adsss_sd          =   3.3304948625302E-05
(PID.TID 0000.0001) %MON ad_dynstat_adsss_del2        =   3.0837040952794E-06
(PID.TID 0000.0001) %MON ad_extforcing_adqnet_max     =   0.0000000000000E+00
(PID.TID 0000.0001) %MON ad_extforcing_adqnet_min     =   0.0000000000000E+00
(PID.TID 0000.0001) %MON ad_extforcing_adqnet_mean    =   0.0000000000000E+00
(PID.TID 0000.0001) %MON ad_extforcing_adqnet_sd      =   0.0000000000000E+00
(PID.TID 0000.0001) %MON ad_extforcing_adqnet_del2    =   0.0000000000000E+00
(PID.TID 0000.0001) %MON ad_extforcing_adempmr_max    =   7.3616586218400E+02
(PID.TID 0000.0001) %MON ad_extforcing_adempmr_min    =  -7.7373847760749E+02
(PID.TID 0000.0001) %MON ad_extforcing_adempmr_mean   =   8.5890738148862E-01
(PID.TID 0000.0001) %MON ad_extforcing_adempmr_sd     =   5.6720711352325E+01
(PID.TID 0000.0001) %MON ad_extforcing_adempmr_del2   =   5.2973772787027E+00
(PID.TID 0000.0001) %MON ad_extforcing_adfu_max       =   0.0000000000000E+00
(PID.TID 0000.0001) %MON ad_extforcing_adfu_min       =   0.0000000000000E+00
(PID.TID 0000.0001) %MON ad_extforcing_adfu_mean      =   0.0000000000000E+00
(PID.TID 0000.0001) %MON ad_extforcing_adfu_sd        =   0.0000000000000E+00
(PID.TID 0000.0001) %MON ad_extforcing_adfu_del2      =   0.0000000000000E+00
(PID.TID 0000.0001) %MON ad_extforcing_adfv_max       =   0.0000000000000E+00
(PID.TID 0000.0001) %MON ad_extforcing_adfv_min       =   0.0000000000000E+00
(PID.TID 0000.0001) %MON ad_extforcing_adfv_mean      =   0.0000000000000E+00
(PID.TID 0000.0001) %MON ad_extforcing_adfv_sd        =   0.0000000000000E+00
(PID.TID 0000.0001) %MON ad_extforcing_adfv_del2      =   0.0000000000000E+00
(PID.TID 0000.0001) %MON ad_advcfl_aduvel_max         =   1.3291912099583E-03
(PID.TID 0000.0001) %MON ad_advcfl_advvel_max         =   2.5588617306881E-03
(PID.TID 0000.0001) %MON ad_advcfl_adwvel_max         =   4.3826142919581E+02
(PID.TID 0000.0001) %MON ad_advcfl_adW_hf_max         =   6.1676545381598E+02
(PID.TID 0000.0001) // =======================================================
(PID.TID 0000.0001) // End MONITOR dynamic field statistics
(PID.TID 0000.0001) // =======================================================
 cg2d: Sum(rhs),rhsMax =   1.49083870248923E-13  5.98876395420274E-08
(PID.TID 0000.0001) // =======================================================
(PID.TID 0000.0001) // Begin MONITOR dynamic field statistics
(PID.TID 0000.0001) // =======================================================
(PID.TID 0000.0001) %MON ad_time_tsnumber             =                    68
(PID.TID 0000.0001) %MON ad_time_secondsf             =   2.9376000000000E+06
(PID.TID 0000.0001) %MON ad_dynstat_adeta_max         =   5.3124587515408E-03
(PID.TID 0000.0001) %MON ad_dynstat_adeta_min         =  -8.1528577906356E-03
(PID.TID 0000.0001) %MON ad_dynstat_adeta_mean        =   9.4309729569768E-06
(PID.TID 0000.0001) %MON ad_dynstat_adeta_sd          =   4.2761495501732E-04
(PID.TID 0000.0001) %MON ad_dynstat_adeta_del2        =   2.9848884628864E-05
(PID.TID 0000.0001) %MON ad_dynstat_aduvel_max        =   7.5951753178732E-03
(PID.TID 0000.0001) %MON ad_dynstat_aduvel_min        =  -1.1662926024165E-02
(PID.TID 0000.0001) %MON ad_dynstat_aduvel_mean       =  -9.2562725778095E-05
(PID.TID 0000.0001) %MON ad_dynstat_aduvel_sd         =   5.2854751270364E-04
(PID.TID 0000.0001) %MON ad_dynstat_aduvel_del2       =   2.5167300304978E-05
(PID.TID 0000.0001) %MON ad_dynstat_advvel_max        =   1.7944597017438E-02
(PID.TID 0000.0001) %MON ad_dynstat_advvel_min        =  -2.6006938264267E-02
(PID.TID 0000.0001) %MON ad_dynstat_advvel_mean       =   8.4778596913974E-05
(PID.TID 0000.0001) %MON ad_dynstat_advvel_sd         =   1.5241148806138E-03
(PID.TID 0000.0001) %MON ad_dynstat_advvel_del2       =   1.0012713618531E-04
(PID.TID 0000.0001) %MON ad_dynstat_adwvel_max        =   2.1699798468867E+00
(PID.TID 0000.0001) %MON ad_dynstat_adwvel_min        =  -1.2084979987386E+00
(PID.TID 0000.0001) %MON ad_dynstat_adwvel_mean       =   2.3701417333981E-04
(PID.TID 0000.0001) %MON ad_dynstat_adwvel_sd         =   3.3681055212919E-02
(PID.TID 0000.0001) %MON ad_dynstat_adwvel_del2       =   1.5956854287602E-03
(PID.TID 0000.0001) %MON ad_dynstat_adtheta_max       =   5.0584487958754E-03
(PID.TID 0000.0001) %MON ad_dynstat_adtheta_min       =  -5.2764078724064E-03
(PID.TID 0000.0001) %MON ad_dynstat_adtheta_mean      =   6.4213493301522E-07
(PID.TID 0000.0001) %MON ad_dynstat_adtheta_sd        =   1.9231573048967E-04
(PID.TID 0000.0001) %MON ad_dynstat_adtheta_del2      =   9.8391396426020E-06
(PID.TID 0000.0001) %MON ad_dynstat_adsalt_max        =   1.9681044940945E-02
(PID.TID 0000.0001) %MON ad_dynstat_adsalt_min        =  -2.1950315861343E-02
(PID.TID 0000.0001) %MON ad_dynstat_adsalt_mean       =  -3.5710101170553E-06
(PID.TID 0000.0001) %MON ad_dynstat_adsalt_sd         =   8.7976086287351E-04
(PID.TID 0000.0001) %MON ad_dynstat_adsalt_del2       =   4.2492116345173E-05
(PID.TID 0000.0001) %MON ad_dynstat_adsst_max         =   1.9486362431483E-04
(PID.TID 0000.0001) %MON ad_dynstat_adsst_min         =  -1.6933227847238E-04
(PID.TID 0000.0001) %MON ad_dynstat_adsst_mean        =  -4.8007521124891E-07
(PID.TID 0000.0001) %MON ad_dynstat_adsst_sd          =   1.0494305249211E-05
(PID.TID 0000.0001) %MON ad_dynstat_adsst_del2        =   9.0348358391485E-07
(PID.TID 0000.0001) %MON ad_dynstat_adsss_max         =   4.6840634228934E-04
(PID.TID 0000.0001) %MON ad_dynstat_adsss_min         =  -6.7234819086949E-04
(PID.TID 0000.0001) %MON ad_dynstat_adsss_mean        =   5.1872750865767E-07
(PID.TID 0000.0001) %MON ad_dynstat_adsss_sd          =   3.3019785424797E-05
(PID.TID 0000.0001) %MON ad_dynstat_adsss_del2        =   3.0573053595628E-06
(PID.TID 0000.0001) %MON ad_extforcing_adqnet_max     =   0.0000000000000E+00
(PID.TID 0000.0001) %MON ad_extforcing_adqnet_min     =   0.0000000000000E+00
(PID.TID 0000.0001) %MON ad_extforcing_adqnet_mean    =   0.0000000000000E+00
(PID.TID 0000.0001) %MON ad_extforcing_adqnet_sd      =   0.0000000000000E+00
(PID.TID 0000.0001) %MON ad_extforcing_adqnet_del2    =   0.0000000000000E+00
(PID.TID 0000.0001) %MON ad_extforcing_adempmr_max    =   7.5041970580840E+02
(PID.TID 0000.0001) %MON ad_extforcing_adempmr_min    =  -8.0077950050130E+02
(PID.TID 0000.0001) %MON ad_extforcing_adempmr_mean   =   8.6410344435503E-01
(PID.TID 0000.0001) %MON ad_extforcing_adempmr_sd     =   5.7984923381179E+01
(PID.TID 0000.0001) %MON ad_extforcing_adempmr_del2   =   5.4041933664595E+00
(PID.TID 0000.0001) %MON ad_extforcing_adfu_max       =   0.0000000000000E+00
(PID.TID 0000.0001) %MON ad_extforcing_adfu_min       =   0.0000000000000E+00
(PID.TID 0000.0001) %MON ad_extforcing_adfu_mean      =   0.0000000000000E+00
(PID.TID 0000.0001) %MON ad_extforcing_adfu_sd        =   0.0000000000000E+00
(PID.TID 0000.0001) %MON ad_extforcing_adfu_del2      =   0.0000000000000E+00
(PID.TID 0000.0001) %MON ad_extforcing_adfv_max       =   0.0000000000000E+00
(PID.TID 0000.0001) %MON ad_extforcing_adfv_min       =   0.0000000000000E+00
(PID.TID 0000.0001) %MON ad_extforcing_adfv_mean      =   0.0000000000000E+00
(PID.TID 0000.0001) %MON ad_extforcing_adfv_sd        =   0.0000000000000E+00
(PID.TID 0000.0001) %MON ad_extforcing_adfv_del2      =   0.0000000000000E+00
(PID.TID 0000.0001) %MON ad_advcfl_aduvel_max         =   1.3082292192286E-03
(PID.TID 0000.0001) %MON ad_advcfl_advvel_max         =   2.5263655018018E-03
(PID.TID 0000.0001) %MON ad_advcfl_adwvel_max         =   4.3601455528142E+02
(PID.TID 0000.0001) %MON ad_advcfl_adW_hf_max         =   6.1385767674601E+02
(PID.TID 0000.0001) // =======================================================
(PID.TID 0000.0001) // End MONITOR dynamic field statistics
(PID.TID 0000.0001) // =======================================================
 cg2d: Sum(rhs),rhsMax =   2.12241682562286E-13  5.97150613242899E-08
(PID.TID 0000.0001) // =======================================================
(PID.TID 0000.0001) // Begin MONITOR dynamic field statistics
(PID.TID 0000.0001) // =======================================================
(PID.TID 0000.0001) %MON ad_time_tsnumber             =                    67
(PID.TID 0000.0001) %MON ad_time_secondsf             =   2.8944000000000E+06
(PID.TID 0000.0001) %MON ad_dynstat_adeta_max         =   5.2351593643548E-03
(PID.TID 0000.0001) %MON ad_dynstat_adeta_min         =  -8.0606694692162E-03
(PID.TID 0000.0001) %MON ad_dynstat_adeta_mean        =   9.2482386810238E-06
(PID.TID 0000.0001) %MON ad_dynstat_adeta_sd          =   4.2261695630393E-04
(PID.TID 0000.0001) %MON ad_dynstat_adeta_del2        =   2.9487385980687E-05
(PID.TID 0000.0001) %MON ad_dynstat_aduvel_max        =   7.4281329944977E-03
(PID.TID 0000.0001) %MON ad_dynstat_aduvel_min        =  -1.1356687744868E-02
(PID.TID 0000.0001) %MON ad_dynstat_aduvel_mean       =  -9.1216122439260E-05
(PID.TID 0000.0001) %MON ad_dynstat_aduvel_sd         =   5.2801147434232E-04
(PID.TID 0000.0001) %MON ad_dynstat_aduvel_del2       =   2.5502205306802E-05
(PID.TID 0000.0001) %MON ad_dynstat_advvel_max        =   1.9632967959608E-02
(PID.TID 0000.0001) %MON ad_dynstat_advvel_min        =  -2.5458836578749E-02
(PID.TID 0000.0001) %MON ad_dynstat_advvel_mean       =   8.1541817669687E-05
(PID.TID 0000.0001) %MON ad_dynstat_advvel_sd         =   1.5366728994233E-03
(PID.TID 0000.0001) %MON ad_dynstat_advvel_del2       =   9.9750923634096E-05
(PID.TID 0000.0001) %MON ad_dynstat_adwvel_max        =   2.1584713018760E+00
(PID.TID 0000.0001) %MON ad_dynstat_adwvel_min        =  -1.2044544261812E+00
(PID.TID 0000.0001) %MON ad_dynstat_adwvel_mean       =   2.4626482142501E-04
(PID.TID 0000.0001) %MON ad_dynstat_adwvel_sd         =   3.3201993592989E-02
(PID.TID 0000.0001) %MON ad_dynstat_adwvel_del2       =   1.5539912909200E-03
(PID.TID 0000.0001) %MON ad_dynstat_adtheta_max       =   5.0411089648660E-03
(PID.TID 0000.0001) %MON ad_dynstat_adtheta_min       =  -5.2438136530938E-03
(PID.TID 0000.0001) %MON ad_dynstat_adtheta_mean      =   6.1947930965371E-07
(PID.TID 0000.0001) %MON ad_dynstat_adtheta_sd        =   1.9069150883657E-04
(PID.TID 0000.0001) %MON ad_dynstat_adtheta_del2      =   9.5791076038908E-06
(PID.TID 0000.0001) %MON ad_dynstat_adsalt_max        =   1.9561429918797E-02
(PID.TID 0000.0001) %MON ad_dynstat_adsalt_min        =  -2.1871866852317E-02
(PID.TID 0000.0001) %MON ad_dynstat_adsalt_mean       =  -3.4333584864098E-06
(PID.TID 0000.0001) %MON ad_dynstat_adsalt_sd         =   8.7272324823965E-04
(PID.TID 0000.0001) %MON ad_dynstat_adsalt_del2       =   4.1421122357943E-05
(PID.TID 0000.0001) %MON ad_dynstat_adsst_max         =   1.9361737876553E-04
(PID.TID 0000.0001) %MON ad_dynstat_adsst_min         =  -1.6924240464062E-04
(PID.TID 0000.0001) %MON ad_dynstat_adsst_mean        =  -4.7121358418588E-07
(PID.TID 0000.0001) %MON ad_dynstat_adsst_sd          =   1.0343871673489E-05
(PID.TID 0000.0001) %MON ad_dynstat_adsst_del2        =   8.8964532341485E-07
(PID.TID 0000.0001) %MON ad_dynstat_adsss_max         =   4.6825777659745E-04
(PID.TID 0000.0001) %MON ad_dynstat_adsss_min         =  -6.7094724557631E-04
(PID.TID 0000.0001) %MON ad_dynstat_adsss_mean        =   4.8015889806283E-07
(PID.TID 0000.0001) %MON ad_dynstat_adsss_sd          =   3.2636780520521E-05
(PID.TID 0000.0001) %MON ad_dynstat_adsss_del2        =   3.0239273814039E-06
(PID.TID 0000.0001) %MON ad_extforcing_adqnet_max     =   0.0000000000000E+00
(PID.TID 0000.0001) %MON ad_extforcing_adqnet_min     =   0.0000000000000E+00
(PID.TID 0000.0001) %MON ad_extforcing_adqnet_mean    =   0.0000000000000E+00
(PID.TID 0000.0001) %MON ad_extforcing_adqnet_sd      =   0.0000000000000E+00
(PID.TID 0000.0001) %MON ad_extforcing_adqnet_del2    =   0.0000000000000E+00
(PID.TID 0000.0001) %MON ad_extforcing_adempmr_max    =   7.6595183935685E+02
(PID.TID 0000.0001) %MON ad_extforcing_adempmr_min    =  -8.2775242998942E+02
(PID.TID 0000.0001) %MON ad_extforcing_adempmr_mean   =   8.6771170117257E-01
(PID.TID 0000.0001) %MON ad_extforcing_adempmr_sd     =   5.9221756830837E+01
(PID.TID 0000.0001) %MON ad_extforcing_adempmr_del2   =   5.5088161650349E+00
(PID.TID 0000.0001) %MON ad_extforcing_adfu_max       =   0.0000000000000E+00
(PID.TID 0000.0001) %MON ad_extforcing_adfu_min       =   0.0000000000000E+00
(PID.TID 0000.0001) %MON ad_extforcing_adfu_mean      =   0.0000000000000E+00
(PID.TID 0000.0001) %MON ad_extforcing_adfu_sd        =   0.0000000000000E+00
(PID.TID 0000.0001) %MON ad_extforcing_adfu_del2      =   0.0000000000000E+00
(PID.TID 0000.0001) %MON ad_extforcing_adfv_max       =   0.0000000000000E+00
(PID.TID 0000.0001) %MON ad_extforcing_adfv_min       =   0.0000000000000E+00
(PID.TID 0000.0001) %MON ad_extforcing_adfv_mean      =   0.0000000000000E+00
(PID.TID 0000.0001) %MON ad_extforcing_adfv_sd        =   0.0000000000000E+00
(PID.TID 0000.0001) %MON ad_extforcing_adfv_del2      =   0.0000000000000E+00
(PID.TID 0000.0001) %MON ad_advcfl_aduvel_max         =   1.2738785027625E-03
(PID.TID 0000.0001) %MON ad_advcfl_advvel_max         =   2.4731218183009E-03
(PID.TID 0000.0001) %MON ad_advcfl_adwvel_max         =   4.3370214065602E+02
(PID.TID 0000.0001) %MON ad_advcfl_adW_hf_max         =   6.1103591493136E+02
(PID.TID 0000.0001) // =======================================================
(PID.TID 0000.0001) // End MONITOR dynamic field statistics
(PID.TID 0000.0001) // =======================================================
 cg2d: Sum(rhs),rhsMax =   2.80954079445728E-13  5.95403129369635E-08
time,SST,SSS,fu,fv,Q,E-P,i0,i1,a,b =   2.7216E+06  1.3877E-01  3.4553E+01 -2.3974E-02 -3.5465E-02  2.5186E+02  0.0000E+00     1     2  5.5000E-01  4.5000E-01
time,fu0,fu1,fu =   2.7216E+06 -3.5633E-02 -1.4435E-02 -2.3974E-02  5.500000000000000E-01  4.500000000000000E-01
 cg2d: Sum(rhs),rhsMax =   3.31672189712862E-12  1.28756214604387E+01
time,SST,SSS,fu,fv,Q,E-P,i0,i1,a,b =   2.7648E+06  1.1393E-01  3.4548E+01 -2.3621E-02 -3.4805E-02  2.5144E+02  0.0000E+00     1     2  5.6667E-01  4.3333E-01
time,fu0,fu1,fu =   2.7648E+06 -3.5633E-02 -1.4435E-02 -2.3621E-02  5.666666666666667E-01  4.333333333333333E-01
 cg2d: Sum(rhs),rhsMax =   3.41281169990992E-12  1.22747851031081E+01
time,SST,SSS,fu,fv,Q,E-P,i0,i1,a,b =   2.8080E+06  8.9094E-02  3.4543E+01 -2.3267E-02 -3.4144E-02  2.5102E+02  0.0000E+00     1     2  5.8333E-01  4.1667E-01
time,fu0,fu1,fu =   2.8080E+06 -3.5633E-02 -1.4435E-02 -2.3267E-02  5.833333333333334E-01  4.166666666666666E-01
 cg2d: Sum(rhs),rhsMax =   3.04281599916578E-12  1.15588664150395E+01
(PID.TID 0000.0001) // =======================================================
(PID.TID 0000.0001) // Begin MONITOR dynamic field statistics
(PID.TID 0000.0001) // =======================================================
(PID.TID 0000.0001) %MON ad_time_tsnumber             =                    66
(PID.TID 0000.0001) %MON ad_time_secondsf             =   2.8512000000000E+06
(PID.TID 0000.0001) %MON ad_dynstat_adeta_max         =   5.1557169479242E-03
(PID.TID 0000.0001) %MON ad_dynstat_adeta_min         =  -7.9706475335438E-03
(PID.TID 0000.0001) %MON ad_dynstat_adeta_mean        =   9.0874179299728E-06
(PID.TID 0000.0001) %MON ad_dynstat_adeta_sd          =   4.1777373624824E-04
(PID.TID 0000.0001) %MON ad_dynstat_adeta_del2        =   2.9190647495137E-05
(PID.TID 0000.0001) %MON ad_dynstat_aduvel_max        =   7.2215007925675E-03
(PID.TID 0000.0001) %MON ad_dynstat_aduvel_min        =  -1.0934472977481E-02
(PID.TID 0000.0001) %MON ad_dynstat_aduvel_mean       =  -8.9044401845818E-05
(PID.TID 0000.0001) %MON ad_dynstat_aduvel_sd         =   5.2631500801034E-04
(PID.TID 0000.0001) %MON ad_dynstat_aduvel_del2       =   2.5825412133377E-05
(PID.TID 0000.0001) %MON ad_dynstat_advvel_max        =   2.1182373836846E-02
(PID.TID 0000.0001) %MON ad_dynstat_advvel_min        =  -2.4705771148729E-02
(PID.TID 0000.0001) %MON ad_dynstat_advvel_mean       =   7.7646123643779E-05
(PID.TID 0000.0001) %MON ad_dynstat_advvel_sd         =   1.5466943270236E-03
(PID.TID 0000.0001) %MON ad_dynstat_advvel_del2       =   9.9894056817833E-05
(PID.TID 0000.0001) %MON ad_dynstat_adwvel_max        =   2.1470602710526E+00
(PID.TID 0000.0001) %MON ad_dynstat_adwvel_min        =  -1.2006971902450E+00
(PID.TID 0000.0001) %MON ad_dynstat_adwvel_mean       =   2.5562329296899E-04
(PID.TID 0000.0001) %MON ad_dynstat_adwvel_sd         =   3.2800382354565E-02
(PID.TID 0000.0001) %MON ad_dynstat_adwvel_del2       =   1.5233043193367E-03
(PID.TID 0000.0001) %MON ad_dynstat_adtheta_max       =   5.0257775889322E-03
(PID.TID 0000.0001) %MON ad_dynstat_adtheta_min       =  -5.2122188649454E-03
(PID.TID 0000.0001) %MON ad_dynstat_adtheta_mean      =   5.9761807068853E-07
(PID.TID 0000.0001) %MON ad_dynstat_adtheta_sd        =   1.8927797953811E-04
(PID.TID 0000.0001) %MON ad_dynstat_adtheta_del2      =   9.3796390718736E-06
(PID.TID 0000.0001) %MON ad_dynstat_adsalt_max        =   1.9446216278478E-02
(PID.TID 0000.0001) %MON ad_dynstat_adsalt_min        =  -2.1801740217232E-02
(PID.TID 0000.0001) %MON ad_dynstat_adsalt_mean       =  -3.2994961645114E-06
(PID.TID 0000.0001) %MON ad_dynstat_adsalt_sd         =   8.6658324614321E-04
(PID.TID 0000.0001) %MON ad_dynstat_adsalt_del2       =   4.0609121376951E-05
(PID.TID 0000.0001) %MON ad_dynstat_adsst_max         =   1.9233283876947E-04
(PID.TID 0000.0001) %MON ad_dynstat_adsst_min         =  -1.6929215774686E-04
(PID.TID 0000.0001) %MON ad_dynstat_adsst_mean        =  -4.6063966324143E-07
(PID.TID 0000.0001) %MON ad_dynstat_adsst_sd          =   1.0187477743914E-05
(PID.TID 0000.0001) %MON ad_dynstat_adsst_del2        =   8.7639653314201E-07
(PID.TID 0000.0001) %MON ad_dynstat_adsss_max         =   4.6849764478940E-04
(PID.TID 0000.0001) %MON ad_dynstat_adsss_min         =  -6.6940333831653E-04
(PID.TID 0000.0001) %MON ad_dynstat_adsss_mean        =   4.3486509113665E-07
(PID.TID 0000.0001) %MON ad_dynstat_adsss_sd          =   3.2244973015817E-05
(PID.TID 0000.0001) %MON ad_dynstat_adsss_del2        =   2.9955211073439E-06
(PID.TID 0000.0001) %MON ad_extforcing_adqnet_max     =   0.0000000000000E+00
(PID.TID 0000.0001) %MON ad_extforcing_adqnet_min     =   0.0000000000000E+00
(PID.TID 0000.0001) %MON ad_extforcing_adqnet_mean    =   0.0000000000000E+00
(PID.TID 0000.0001) %MON ad_extforcing_adqnet_sd      =   0.0000000000000E+00
(PID.TID 0000.0001) %MON ad_extforcing_adqnet_del2    =   0.0000000000000E+00
(PID.TID 0000.0001) %MON ad_extforcing_adempmr_max    =   7.8956513801899E+02
(PID.TID 0000.0001) %MON ad_extforcing_adempmr_min    =  -8.5465061301640E+02
(PID.TID 0000.0001) %MON ad_extforcing_adempmr_mean   =   8.6965088234575E-01
(PID.TID 0000.0001) %MON ad_extforcing_adempmr_sd     =   6.0433504880005E+01
(PID.TID 0000.0001) %MON ad_extforcing_adempmr_del2   =   5.6112535410328E+00
(PID.TID 0000.0001) %MON ad_extforcing_adfu_max       =   0.0000000000000E+00
(PID.TID 0000.0001) %MON ad_extforcing_adfu_min       =   0.0000000000000E+00
(PID.TID 0000.0001) %MON ad_extforcing_adfu_mean      =   0.0000000000000E+00
(PID.TID 0000.0001) %MON ad_extforcing_adfu_sd        =   0.0000000000000E+00
(PID.TID 0000.0001) %MON ad_extforcing_adfu_del2      =   0.0000000000000E+00
(PID.TID 0000.0001) %MON ad_extforcing_adfv_max       =   0.0000000000000E+00
(PID.TID 0000.0001) %MON ad_extforcing_adfv_min       =   0.0000000000000E+00
(PID.TID 0000.0001) %MON ad_extforcing_adfv_mean      =   0.0000000000000E+00
(PID.TID 0000.0001) %MON ad_extforcing_adfv_sd        =   0.0000000000000E+00
(PID.TID 0000.0001) %MON ad_extforcing_adfv_del2      =   0.0000000000000E+00
(PID.TID 0000.0001) %MON ad_advcfl_aduvel_max         =   1.2265187154894E-03
(PID.TID 0000.0001) %MON ad_advcfl_advvel_max         =   2.3999675506331E-03
(PID.TID 0000.0001) %MON ad_advcfl_adwvel_max         =   4.3140931957893E+02
(PID.TID 0000.0001) %MON ad_advcfl_adW_hf_max         =   6.0840014676864E+02
(PID.TID 0000.0001) // =======================================================
(PID.TID 0000.0001) // End MONITOR dynamic field statistics
(PID.TID 0000.0001) // =======================================================
 cg2d: Sum(rhs),rhsMax =   3.63032520711570E-13  5.93714781990649E-08
(PID.TID 0000.0001) // =======================================================
(PID.TID 0000.0001) // Begin MONITOR dynamic field statistics
(PID.TID 0000.0001) // =======================================================
(PID.TID 0000.0001) %MON ad_time_tsnumber             =                    65
(PID.TID 0000.0001) %MON ad_time_secondsf             =   2.8080000000000E+06
(PID.TID 0000.0001) %MON ad_dynstat_adeta_max         =   5.0752296473943E-03
(PID.TID 0000.0001) %MON ad_dynstat_adeta_min         =  -7.8842434911957E-03
(PID.TID 0000.0001) %MON ad_dynstat_adeta_mean        =   8.9490448260762E-06
(PID.TID 0000.0001) %MON ad_dynstat_adeta_sd          =   4.1311633120232E-04
(PID.TID 0000.0001) %MON ad_dynstat_adeta_del2        =   2.8959401817390E-05
(PID.TID 0000.0001) %MON ad_dynstat_aduvel_max        =   6.9754986026695E-03
(PID.TID 0000.0001) %MON ad_dynstat_aduvel_min        =  -1.0401184058593E-02
(PID.TID 0000.0001) %MON ad_dynstat_aduvel_mean       =  -8.6069485301019E-05
(PID.TID 0000.0001) %MON ad_dynstat_aduvel_sd         =   5.2355139356372E-04
(PID.TID 0000.0001) %MON ad_dynstat_aduvel_del2       =   2.6201668133539E-05
(PID.TID 0000.0001) %MON ad_dynstat_advvel_max        =   2.2577096098246E-02
(PID.TID 0000.0001) %MON ad_dynstat_advvel_min        =  -2.3761314422684E-02
(PID.TID 0000.0001) %MON ad_dynstat_advvel_mean       =   7.3147350627431E-05
(PID.TID 0000.0001) %MON ad_dynstat_advvel_sd         =   1.5538152954293E-03
(PID.TID 0000.0001) %MON ad_dynstat_advvel_del2       =   1.0049443246534E-04
(PID.TID 0000.0001) %MON ad_dynstat_adwvel_max        =   2.1361670397656E+00
(PID.TID 0000.0001) %MON ad_dynstat_adwvel_min        =  -1.1973830573269E+00
(PID.TID 0000.0001) %MON ad_dynstat_adwvel_mean       =   2.6494998301954E-04
(PID.TID 0000.0001) %MON ad_dynstat_adwvel_sd         =   3.2478400131199E-02
(PID.TID 0000.0001) %MON ad_dynstat_adwvel_del2       =   1.5054481313889E-03
(PID.TID 0000.0001) %MON ad_dynstat_adtheta_max       =   5.0131725279904E-03
(PID.TID 0000.0001) %MON ad_dynstat_adtheta_min       =  -5.1826651712260E-03
(PID.TID 0000.0001) %MON ad_dynstat_adtheta_mean      =   5.7683097756462E-07
(PID.TID 0000.0001) %MON ad_dynstat_adtheta_sd        =   1.8816595169617E-04
(PID.TID 0000.0001) %MON ad_dynstat_adtheta_del2      =   9.2571232689884E-06
(PID.TID 0000.0001) %MON ad_dynstat_adsalt_max        =   1.9676771919891E-02
(PID.TID 0000.0001) %MON ad_dynstat_adsalt_min        =  -2.1743107798254E-02
(PID.TID 0000.0001) %MON ad_dynstat_adsalt_mean       =  -3.1711029876977E-06
(PID.TID 0000.0001) %MON ad_dynstat_adsalt_sd         =   8.6178865552294E-04
(PID.TID 0000.0001) %MON ad_dynstat_adsalt_del2       =   4.0111148366457E-05
(PID.TID 0000.0001) %MON ad_dynstat_adsst_max         =   1.9106126165368E-04
(PID.TID 0000.0001) %MON ad_dynstat_adsst_min         =  -1.6948629666171E-04
(PID.TID 0000.0001) %MON ad_dynstat_adsst_mean        =  -4.5323224589940E-07
(PID.TID 0000.0001) %MON ad_dynstat_adsst_sd          =   1.0043249085941E-05
(PID.TID 0000.0001) %MON ad_dynstat_adsst_del2        =   8.6408024651546E-07
(PID.TID 0000.0001) %MON ad_dynstat_adsss_max         =   4.6914177921475E-04
(PID.TID 0000.0001) %MON ad_dynstat_adsss_min         =  -6.6787801206694E-04
(PID.TID 0000.0001) %MON ad_dynstat_adsss_mean        =   4.0123633104520E-07
(PID.TID 0000.0001) %MON ad_dynstat_adsss_sd          =   3.1879063743040E-05
(PID.TID 0000.0001) %MON ad_dynstat_adsss_del2        =   2.9688046276053E-06
(PID.TID 0000.0001) %MON ad_extforcing_adqnet_max     =   0.0000000000000E+00
(PID.TID 0000.0001) %MON ad_extforcing_adqnet_min     =   0.0000000000000E+00
(PID.TID 0000.0001) %MON ad_extforcing_adqnet_mean    =   0.0000000000000E+00
(PID.TID 0000.0001) %MON ad_extforcing_adqnet_sd      =   0.0000000000000E+00
(PID.TID 0000.0001) %MON ad_extforcing_adqnet_del2    =   0.0000000000000E+00
(PID.TID 0000.0001) %MON ad_extforcing_adempmr_max    =   8.1318428138746E+02
(PID.TID 0000.0001) %MON ad_extforcing_adempmr_min    =  -8.8147277252259E+02
(PID.TID 0000.0001) %MON ad_extforcing_adempmr_mean   =   8.7030710416462E-01
(PID.TID 0000.0001) %MON ad_extforcing_adempmr_sd     =   6.1623969342259E+01
(PID.TID 0000.0001) %MON ad_extforcing_adempmr_del2   =   5.7123500353432E+00
(PID.TID 0000.0001) %MON ad_extforcing_adfu_max       =   0.0000000000000E+00
(PID.TID 0000.0001) %MON ad_extforcing_adfu_min       =   0.0000000000000E+00
(PID.TID 0000.0001) %MON ad_extforcing_adfu_mean      =   0.0000000000000E+00
(PID.TID 0000.0001) %MON ad_extforcing_adfu_sd        =   0.0000000000000E+00
(PID.TID 0000.0001) %MON ad_extforcing_adfu_del2      =   0.0000000000000E+00
(PID.TID 0000.0001) %MON ad_extforcing_adfv_max       =   0.0000000000000E+00
(PID.TID 0000.0001) %MON ad_extforcing_adfv_min       =   0.0000000000000E+00
(PID.TID 0000.0001) %MON ad_extforcing_adfv_mean      =   0.0000000000000E+00
(PID.TID 0000.0001) %MON ad_extforcing_adfv_sd        =   0.0000000000000E+00
(PID.TID 0000.0001) %MON ad_extforcing_adfv_del2      =   0.0000000000000E+00
(PID.TID 0000.0001) %MON ad_advcfl_aduvel_max         =   1.1666997520033E-03
(PID.TID 0000.0001) %MON ad_advcfl_advvel_max         =   2.3082211533303E-03
(PID.TID 0000.0001) %MON ad_advcfl_adwvel_max         =   4.2928036144110E+02
(PID.TID 0000.0001) %MON ad_advcfl_adW_hf_max         =   6.0604286321096E+02
(PID.TID 0000.0001) // =======================================================
(PID.TID 0000.0001) // End MONITOR dynamic field statistics
(PID.TID 0000.0001) // =======================================================
 cg2d: Sum(rhs),rhsMax =   4.32320845789036E-13  5.92170236669890E-08
(PID.TID 0000.0001) // =======================================================
(PID.TID 0000.0001) // Begin MONITOR dynamic field statistics
(PID.TID 0000.0001) // =======================================================
(PID.TID 0000.0001) %MON ad_time_tsnumber             =                    64
(PID.TID 0000.0001) %MON ad_time_secondsf             =   2.7648000000000E+06
(PID.TID 0000.0001) %MON ad_dynstat_adeta_max         =   4.9946862240444E-03
(PID.TID 0000.0001) %MON ad_dynstat_adeta_min         =  -7.8029326279532E-03
(PID.TID 0000.0001) %MON ad_dynstat_adeta_mean        =   8.8330488661879E-06
(PID.TID 0000.0001) %MON ad_dynstat_adeta_sd          =   4.0868311116581E-04
(PID.TID 0000.0001) %MON ad_dynstat_adeta_del2        =   2.8921218449874E-05
(PID.TID 0000.0001) %MON ad_dynstat_aduvel_max        =   6.6908531162520E-03
(PID.TID 0000.0001) %MON ad_dynstat_aduvel_min        =  -9.7632011922726E-03
(PID.TID 0000.0001) %MON ad_dynstat_aduvel_mean       =  -8.2318804507848E-05
(PID.TID 0000.0001) %MON ad_dynstat_aduvel_sd         =   5.1983419132182E-04
(PID.TID 0000.0001) %MON ad_dynstat_aduvel_del2       =   2.6556911455610E-05
(PID.TID 0000.0001) %MON ad_dynstat_advvel_max        =   2.3802521712151E-02
(PID.TID 0000.0001) %MON ad_dynstat_advvel_min        =  -2.2639473257680E-02
(PID.TID 0000.0001) %MON ad_dynstat_advvel_mean       =   6.8100583814426E-05
(PID.TID 0000.0001) %MON ad_dynstat_advvel_sd         =   1.5576303180314E-03
(PID.TID 0000.0001) %MON ad_dynstat_advvel_del2       =   1.0160711415332E-04
(PID.TID 0000.0001) %MON ad_dynstat_adwvel_max        =   2.1262036451170E+00
(PID.TID 0000.0001) %MON ad_dynstat_adwvel_min        =  -1.1946643866967E+00
(PID.TID 0000.0001) %MON ad_dynstat_adwvel_mean       =   2.7426075093399E-04
(PID.TID 0000.0001) %MON ad_dynstat_adwvel_sd         =   3.2239014407122E-02
(PID.TID 0000.0001) %MON ad_dynstat_adwvel_del2       =   1.5019260128586E-03
(PID.TID 0000.0001) %MON ad_dynstat_adtheta_max       =   5.0039723244516E-03
(PID.TID 0000.0001) %MON ad_dynstat_adtheta_min       =  -5.1561616849966E-03
(PID.TID 0000.0001) %MON ad_dynstat_adtheta_mean      =   5.5732678076508E-07
(PID.TID 0000.0001) %MON ad_dynstat_adtheta_sd        =   1.8745880219918E-04
(PID.TID 0000.0001) %MON ad_dynstat_adtheta_del2      =   9.2258022109573E-06
(PID.TID 0000.0001) %MON ad_dynstat_adsalt_max        =   2.0015929359499E-02
(PID.TID 0000.0001) %MON ad_dynstat_adsalt_min        =  -2.1698969902162E-02
(PID.TID 0000.0001) %MON ad_dynstat_adsalt_mean       =  -3.0495959383626E-06
(PID.TID 0000.0001) %MON ad_dynstat_adsalt_sd         =   8.5885069658021E-04
(PID.TID 0000.0001) %MON ad_dynstat_adsalt_del2       =   4.0026435258194E-05
(PID.TID 0000.0001) %MON ad_dynstat_adsst_max         =   1.8985547409700E-04
(PID.TID 0000.0001) %MON ad_dynstat_adsst_min         =  -1.6982080198187E-04
(PID.TID 0000.0001) %MON ad_dynstat_adsst_mean        =  -4.4628512777415E-07
(PID.TID 0000.0001) %MON ad_dynstat_adsst_sd          =   9.9138379711034E-06
(PID.TID 0000.0001) %MON ad_dynstat_adsst_del2        =   8.5304273177261E-07
(PID.TID 0000.0001) %MON ad_dynstat_adsss_max         =   4.7018161104537E-04
(PID.TID 0000.0001) %MON ad_dynstat_adsss_min         =  -6.6653827021537E-04
(PID.TID 0000.0001) %MON ad_dynstat_adsss_mean        =   3.6841716762054E-07
(PID.TID 0000.0001) %MON ad_dynstat_adsss_sd          =   3.1555452358141E-05
(PID.TID 0000.0001) %MON ad_dynstat_adsss_del2        =   2.9462289796502E-06
(PID.TID 0000.0001) %MON ad_extforcing_adqnet_max     =   0.0000000000000E+00
(PID.TID 0000.0001) %MON ad_extforcing_adqnet_min     =   0.0000000000000E+00
(PID.TID 0000.0001) %MON ad_extforcing_adqnet_mean    =   0.0000000000000E+00
(PID.TID 0000.0001) %MON ad_extforcing_adqnet_sd      =   0.0000000000000E+00
(PID.TID 0000.0001) %MON ad_extforcing_adqnet_del2    =   0.0000000000000E+00
(PID.TID 0000.0001) %MON ad_extforcing_adempmr_max    =   8.3682583549194E+02
(PID.TID 0000.0001) %MON ad_extforcing_adempmr_min    =  -9.0822354939793E+02
(PID.TID 0000.0001) %MON ad_extforcing_adempmr_mean   =   8.6999708724503E-01
(PID.TID 0000.0001) %MON ad_extforcing_adempmr_sd     =   6.2795979941289E+01
(PID.TID 0000.0001) %MON ad_extforcing_adempmr_del2   =   5.8123384433720E+00
(PID.TID 0000.0001) %MON ad_extforcing_adfu_max       =   0.0000000000000E+00
(PID.TID 0000.0001) %MON ad_extforcing_adfu_min       =   0.0000000000000E+00
(PID.TID 0000.0001) %MON ad_extforcing_adfu_mean      =   0.0000000000000E+00
(PID.TID 0000.0001) %MON ad_extforcing_adfu_sd        =   0.0000000000000E+00
(PID.TID 0000.0001) %MON ad_extforcing_adfu_del2      =   0.0000000000000E+00
(PID.TID 0000.0001) %MON ad_extforcing_adfv_max       =   0.0000000000000E+00
(PID.TID 0000.0001) %MON ad_extforcing_adfv_min       =   0.0000000000000E+00
(PID.TID 0000.0001) %MON ad_extforcing_adfv_mean      =   0.0000000000000E+00
(PID.TID 0000.0001) %MON ad_extforcing_adfv_sd        =   0.0000000000000E+00
(PID.TID 0000.0001) %MON ad_extforcing_adfv_del2      =   0.0000000000000E+00
(PID.TID 0000.0001) %MON ad_advcfl_aduvel_max         =   1.0951372791420E-03
(PID.TID 0000.0001) %MON ad_advcfl_advvel_max         =   2.3122241110592E-03
(PID.TID 0000.0001) %MON ad_advcfl_adwvel_max         =   4.2786814875659E+02
(PID.TID 0000.0001) %MON ad_advcfl_adW_hf_max         =   6.0404915118577E+02
(PID.TID 0000.0001) // =======================================================
(PID.TID 0000.0001) // End MONITOR dynamic field statistics
(PID.TID 0000.0001) // =======================================================
 cg2d: Sum(rhs),rhsMax =   4.91849616590656E-13  5.90857683778546E-08
time,SST,SSS,fu,fv,Q,E-P,i0,i1,a,b =   2.5920E+06  2.1328E-01  3.4568E+01 -2.5034E-02 -3.7446E-02  2.5313E+02  0.0000E+00     1     2  5.0000E-01  5.0000E-01
time,fu0,fu1,fu =   2.5920E+06 -3.5633E-02 -1.4435E-02 -2.5034E-02  5.000000000000000E-01  5.000000000000000E-01
 cg2d: Sum(rhs),rhsMax =   2.68520622404012E-12  1.37646539938083E+01
time,SST,SSS,fu,fv,Q,E-P,i0,i1,a,b =   2.6352E+06  1.8845E-01  3.4563E+01 -2.4681E-02 -3.6786E-02  2.5270E+02  0.0000E+00     1     2  5.1667E-01  4.8333E-01
time,fu0,fu1,fu =   2.6352E+06 -3.5633E-02 -1.4435E-02 -2.4681E-02  5.166666666666667E-01  4.833333333333333E-01
 cg2d: Sum(rhs),rhsMax =   2.82817519403622E-12  1.36394324617495E+01
time,SST,SSS,fu,fv,Q,E-P,i0,i1,a,b =   2.6784E+06  1.6361E-01  3.4558E+01 -2.4327E-02 -3.6125E-02  2.5228E+02  0.0000E+00     1     2  5.3333E-01  4.6667E-01
time,fu0,fu1,fu =   2.6784E+06 -3.5633E-02 -1.4435E-02 -2.4327E-02  5.333333333333333E-01  4.666666666666667E-01
 cg2d: Sum(rhs),rhsMax =   3.13924580774838E-12  1.33374540349376E+01
(PID.TID 0000.0001) // =======================================================
(PID.TID 0000.0001) // Begin MONITOR dynamic field statistics
(PID.TID 0000.0001) // =======================================================
(PID.TID 0000.0001) %MON ad_time_tsnumber             =                    63
(PID.TID 0000.0001) %MON ad_time_secondsf             =   2.7216000000000E+06
(PID.TID 0000.0001) %MON ad_dynstat_adeta_max         =   4.9150904366547E-03
(PID.TID 0000.0001) %MON ad_dynstat_adeta_min         =  -7.7282022326709E-03
(PID.TID 0000.0001) %MON ad_dynstat_adeta_mean        =   8.7388131951990E-06
(PID.TID 0000.0001) %MON ad_dynstat_adeta_sd          =   4.0452570974202E-04
(PID.TID 0000.0001) %MON ad_dynstat_adeta_del2        =   2.8953318880940E-05
(PID.TID 0000.0001) %MON ad_dynstat_aduvel_max        =   6.3684949000214E-03
(PID.TID 0000.0001) %MON ad_dynstat_aduvel_min        =  -9.0282554418850E-03
(PID.TID 0000.0001) %MON ad_dynstat_aduvel_mean       =  -7.7829111521463E-05
(PID.TID 0000.0001) %MON ad_dynstat_aduvel_sd         =   5.1529327130121E-04
(PID.TID 0000.0001) %MON ad_dynstat_aduvel_del2       =   2.6914917024573E-05
(PID.TID 0000.0001) %MON ad_dynstat_advvel_max        =   2.4845628543487E-02
(PID.TID 0000.0001) %MON ad_dynstat_advvel_min        =  -2.1354213947777E-02
(PID.TID 0000.0001) %MON ad_dynstat_advvel_mean       =   6.2561790195142E-05
(PID.TID 0000.0001) %MON ad_dynstat_advvel_sd         =   1.5577207624327E-03
(PID.TID 0000.0001) %MON ad_dynstat_advvel_del2       =   1.0329968738443E-04
(PID.TID 0000.0001) %MON ad_dynstat_adwvel_max        =   2.1175684530053E+00
(PID.TID 0000.0001) %MON ad_dynstat_adwvel_min        =  -1.1926854536307E+00
(PID.TID 0000.0001) %MON ad_dynstat_adwvel_mean       =   2.8357108196544E-04
(PID.TID 0000.0001) %MON ad_dynstat_adwvel_sd         =   3.2085455371711E-02
(PID.TID 0000.0001) %MON ad_dynstat_adwvel_del2       =   1.5163912840631E-03
(PID.TID 0000.0001) %MON ad_dynstat_adtheta_max       =   4.9988016469420E-03
(PID.TID 0000.0001) %MON ad_dynstat_adtheta_min       =  -5.1336730984421E-03
(PID.TID 0000.0001) %MON ad_dynstat_adtheta_mean      =   5.3934010962007E-07
(PID.TID 0000.0001) %MON ad_dynstat_adtheta_sd        =   1.8726588526902E-04
(PID.TID 0000.0001) %MON ad_dynstat_adtheta_del2      =   9.3411604893476E-06
(PID.TID 0000.0001) %MON ad_dynstat_adsalt_max        =   2.0395947947235E-02
(PID.TID 0000.0001) %MON ad_dynstat_adsalt_min        =  -2.1672089730595E-02
(PID.TID 0000.0001) %MON ad_dynstat_adsalt_mean       =  -2.9364815674891E-06
(PID.TID 0000.0001) %MON ad_dynstat_adsalt_sd         =   8.5831117462879E-04
(PID.TID 0000.0001) %MON ad_dynstat_adsalt_del2       =   4.0649285724471E-05
(PID.TID 0000.0001) %MON ad_dynstat_adsst_max         =   1.8876423566767E-04
(PID.TID 0000.0001) %MON ad_dynstat_adsst_min         =  -1.7028393446782E-04
(PID.TID 0000.0001) %MON ad_dynstat_adsst_mean        =  -4.4126295026321E-07
(PID.TID 0000.0001) %MON ad_dynstat_adsst_sd          =   9.7987529327091E-06
(PID.TID 0000.0001) %MON ad_dynstat_adsst_del2        =   8.4260117795405E-07
(PID.TID 0000.0001) %MON ad_dynstat_adsss_max         =   4.7158704121502E-04
(PID.TID 0000.0001) %MON ad_dynstat_adsss_min         =  -6.6553937554138E-04
(PID.TID 0000.0001) %MON ad_dynstat_adsss_mean        =   3.4134130295307E-07
(PID.TID 0000.0001) %MON ad_dynstat_adsss_sd          =   3.1268744841250E-05
(PID.TID 0000.0001) %MON ad_dynstat_adsss_del2        =   2.9244072443115E-06
(PID.TID 0000.0001) %MON ad_extforcing_adqnet_max     =   0.0000000000000E+00
(PID.TID 0000.0001) %MON ad_extforcing_adqnet_min     =   0.0000000000000E+00
(PID.TID 0000.0001) %MON ad_extforcing_adqnet_mean    =   0.0000000000000E+00
(PID.TID 0000.0001) %MON ad_extforcing_adqnet_sd      =   0.0000000000000E+00
(PID.TID 0000.0001) %MON ad_extforcing_adqnet_del2    =   0.0000000000000E+00
(PID.TID 0000.0001) %MON ad_extforcing_adempmr_max    =   8.6050685658039E+02
(PID.TID 0000.0001) %MON ad_extforcing_adempmr_min    =  -9.3491369329981E+02
(PID.TID 0000.0001) %MON ad_extforcing_adempmr_mean   =   8.6879162781640E-01
(PID.TID 0000.0001) %MON ad_extforcing_adempmr_sd     =   6.3952676145914E+01
(PID.TID 0000.0001) %MON ad_extforcing_adempmr_del2   =   5.9114432932156E+00
(PID.TID 0000.0001) %MON ad_extforcing_adfu_max       =   0.0000000000000E+00
(PID.TID 0000.0001) %MON ad_extforcing_adfu_min       =   0.0000000000000E+00
(PID.TID 0000.0001) %MON ad_extforcing_adfu_mean      =   0.0000000000000E+00
(PID.TID 0000.0001) %MON ad_extforcing_adfu_sd        =   0.0000000000000E+00
(PID.TID 0000.0001) %MON ad_extforcing_adfu_del2      =   0.0000000000000E+00
(PID.TID 0000.0001) %MON ad_extforcing_adfv_max       =   0.0000000000000E+00
(PID.TID 0000.0001) %MON ad_extforcing_adfv_min       =   0.0000000000000E+00
(PID.TID 0000.0001) %MON ad_extforcing_adfv_mean      =   0.0000000000000E+00
(PID.TID 0000.0001) %MON ad_extforcing_adfv_sd        =   0.0000000000000E+00
(PID.TID 0000.0001) %MON ad_extforcing_adfv_del2      =   0.0000000000000E+00
(PID.TID 0000.0001) %MON ad_advcfl_aduvel_max         =   1.0126984894924E-03
(PID.TID 0000.0001) %MON ad_advcfl_advvel_max         =   2.4135535750124E-03
(PID.TID 0000.0001) %MON ad_advcfl_adwvel_max         =   4.2676843775195E+02
(PID.TID 0000.0001) %MON ad_advcfl_adW_hf_max         =   6.0249661800275E+02
(PID.TID 0000.0001) // =======================================================
(PID.TID 0000.0001) // End MONITOR dynamic field statistics
(PID.TID 0000.0001) // =======================================================
 cg2d: Sum(rhs),rhsMax =   6.34743993477294E-13  5.89867828466331E-08
(PID.TID 0000.0001) // =======================================================
(PID.TID 0000.0001) // Begin MONITOR dynamic field statistics
(PID.TID 0000.0001) // =======================================================
(PID.TID 0000.0001) %MON ad_time_tsnumber             =                    62
(PID.TID 0000.0001) %MON ad_time_secondsf             =   2.6784000000000E+06
(PID.TID 0000.0001) %MON ad_dynstat_adeta_max         =   4.8376395671026E-03
(PID.TID 0000.0001) %MON ad_dynstat_adeta_min         =  -7.6615108240206E-03
(PID.TID 0000.0001) %MON ad_dynstat_adeta_mean        =   8.6652333633212E-06
(PID.TID 0000.0001) %MON ad_dynstat_adeta_sd          =   4.0070647070924E-04
(PID.TID 0000.0001) %MON ad_dynstat_adeta_del2        =   2.9134621397576E-05
(PID.TID 0000.0001) %MON ad_dynstat_aduvel_max        =   6.0219568636149E-03
(PID.TID 0000.0001) %MON ad_dynstat_aduvel_min        =  -8.2051783465352E-03
(PID.TID 0000.0001) %MON ad_dynstat_aduvel_mean       =  -7.2645950610444E-05
(PID.TID 0000.0001) %MON ad_dynstat_aduvel_sd         =   5.1007510579887E-04
(PID.TID 0000.0001) %MON ad_dynstat_aduvel_del2       =   2.7267195452246E-05
(PID.TID 0000.0001) %MON ad_dynstat_advvel_max        =   2.5695233638501E-02
(PID.TID 0000.0001) %MON ad_dynstat_advvel_min        =  -1.9920375587139E-02
(PID.TID 0000.0001) %MON ad_dynstat_advvel_mean       =   5.6586835369480E-05
(PID.TID 0000.0001) %MON ad_dynstat_advvel_sd         =   1.5536807022827E-03
(PID.TID 0000.0001) %MON ad_dynstat_advvel_del2       =   1.0513891660339E-04
(PID.TID 0000.0001) %MON ad_dynstat_adwvel_max        =   2.1106412251983E+00
(PID.TID 0000.0001) %MON ad_dynstat_adwvel_min        =  -1.1915770962282E+00
(PID.TID 0000.0001) %MON ad_dynstat_adwvel_mean       =   2.9284259350266E-04
(PID.TID 0000.0001) %MON ad_dynstat_adwvel_sd         =   3.2021058086697E-02
(PID.TID 0000.0001) %MON ad_dynstat_adwvel_del2       =   1.5521481862959E-03
(PID.TID 0000.0001) %MON ad_dynstat_adtheta_max       =   4.9982201597943E-03
(PID.TID 0000.0001) %MON ad_dynstat_adtheta_min       =  -5.1161093435392E-03
(PID.TID 0000.0001) %MON ad_dynstat_adtheta_mean      =   5.2306073532872E-07
(PID.TID 0000.0001) %MON ad_dynstat_adtheta_sd        =   1.8769433865253E-04
(PID.TID 0000.0001) %MON ad_dynstat_adtheta_del2      =   9.6735440920022E-06
(PID.TID 0000.0001) %MON ad_dynstat_adsalt_max        =   2.0814166981868E-02
(PID.TID 0000.0001) %MON ad_dynstat_adsalt_min        =  -2.1664942849503E-02
(PID.TID 0000.0001) %MON ad_dynstat_adsalt_mean       =  -2.8329212793613E-06
(PID.TID 0000.0001) %MON ad_dynstat_adsalt_sd         =   8.6070140408397E-04
(PID.TID 0000.0001) %MON ad_dynstat_adsalt_del2       =   4.2280803586785E-05
(PID.TID 0000.0001) %MON ad_dynstat_adsst_max         =   1.8782823256197E-04
(PID.TID 0000.0001) %MON ad_dynstat_adsst_min         =  -1.7085828914596E-04
(PID.TID 0000.0001) %MON ad_dynstat_adsst_mean        =  -4.3738486137399E-07
(PID.TID 0000.0001) %MON ad_dynstat_adsst_sd          =   9.6988584645063E-06
(PID.TID 0000.0001) %MON ad_dynstat_adsst_del2        =   8.3457739657105E-07
(PID.TID 0000.0001) %MON ad_dynstat_adsss_max         =   4.7331208636087E-04
(PID.TID 0000.0001) %MON ad_dynstat_adsss_min         =  -6.6501235847001E-04
(PID.TID 0000.0001) %MON ad_dynstat_adsss_mean        =   3.1812524120930E-07
(PID.TID 0000.0001) %MON ad_dynstat_adsss_sd          =   3.1023260947091E-05
(PID.TID 0000.0001) %MON ad_dynstat_adsss_del2        =   2.9059324836689E-06
(PID.TID 0000.0001) %MON ad_extforcing_adqnet_max     =   0.0000000000000E+00
(PID.TID 0000.0001) %MON ad_extforcing_adqnet_min     =   0.0000000000000E+00
(PID.TID 0000.0001) %MON ad_extforcing_adqnet_mean    =   0.0000000000000E+00
(PID.TID 0000.0001) %MON ad_extforcing_adqnet_sd      =   0.0000000000000E+00
(PID.TID 0000.0001) %MON ad_extforcing_adqnet_del2    =   0.0000000000000E+00
(PID.TID 0000.0001) %MON ad_extforcing_adempmr_max    =   8.8424427099116E+02
(PID.TID 0000.0001) %MON ad_extforcing_adempmr_min    =  -9.6155966280636E+02
(PID.TID 0000.0001) %MON ad_extforcing_adempmr_mean   =   8.6685153954528E-01
(PID.TID 0000.0001) %MON ad_extforcing_adempmr_sd     =   6.5097086978021E+01
(PID.TID 0000.0001) %MON ad_extforcing_adempmr_del2   =   6.0099745526613E+00
(PID.TID 0000.0001) %MON ad_extforcing_adfu_max       =   0.0000000000000E+00
(PID.TID 0000.0001) %MON ad_extforcing_adfu_min       =   0.0000000000000E+00
(PID.TID 0000.0001) %MON ad_extforcing_adfu_mean      =   0.0000000000000E+00
(PID.TID 0000.0001) %MON ad_extforcing_adfu_sd        =   0.0000000000000E+00
(PID.TID 0000.0001) %MON ad_extforcing_adfu_del2      =   0.0000000000000E+00
(PID.TID 0000.0001) %MON ad_extforcing_adfv_max       =   0.0000000000000E+00
(PID.TID 0000.0001) %MON ad_extforcing_adfv_min       =   0.0000000000000E+00
(PID.TID 0000.0001) %MON ad_extforcing_adfv_mean      =   0.0000000000000E+00
(PID.TID 0000.0001) %MON ad_extforcing_adfv_sd        =   0.0000000000000E+00
(PID.TID 0000.0001) %MON ad_extforcing_adfv_del2      =   0.0000000000000E+00
(PID.TID 0000.0001) %MON ad_advcfl_aduvel_max         =   9.2037401589265E-04
(PID.TID 0000.0001) %MON ad_advcfl_advvel_max         =   2.4960858969793E-03
(PID.TID 0000.0001) %MON ad_advcfl_adwvel_max         =   4.2603112697002E+02
(PID.TID 0000.0001) %MON ad_advcfl_adW_hf_max         =   6.0145570866356E+02
(PID.TID 0000.0001) // =======================================================
(PID.TID 0000.0001) // End MONITOR dynamic field statistics
(PID.TID 0000.0001) // =======================================================
 cg2d: Sum(rhs),rhsMax =   6.92163340532126E-13  5.89288993907973E-08
(PID.TID 0000.0001) // =======================================================
(PID.TID 0000.0001) // Begin MONITOR dynamic field statistics
(PID.TID 0000.0001) // =======================================================
(PID.TID 0000.0001) %MON ad_time_tsnumber             =                    61
(PID.TID 0000.0001) %MON ad_time_secondsf             =   2.6352000000000E+06
(PID.TID 0000.0001) %MON ad_dynstat_adeta_max         =   4.7637065379180E-03
(PID.TID 0000.0001) %MON ad_dynstat_adeta_min         =  -7.6042283372228E-03
(PID.TID 0000.0001) %MON ad_dynstat_adeta_mean        =   8.6107840002653E-06
(PID.TID 0000.0001) %MON ad_dynstat_adeta_sd          =   3.9729501568629E-04
(PID.TID 0000.0001) %MON ad_dynstat_adeta_del2        =   2.9488217755006E-05
(PID.TID 0000.0001) %MON ad_dynstat_aduvel_max        =   5.7193454758098E-03
(PID.TID 0000.0001) %MON ad_dynstat_aduvel_min        =  -7.8292866988430E-03
(PID.TID 0000.0001) %MON ad_dynstat_aduvel_mean       =  -6.6820478708104E-05
(PID.TID 0000.0001) %MON ad_dynstat_aduvel_sd         =   5.0435118665183E-04
(PID.TID 0000.0001) %MON ad_dynstat_aduvel_del2       =   2.7572587443809E-05
(PID.TID 0000.0001) %MON ad_dynstat_advvel_max        =   2.6342024361683E-02
(PID.TID 0000.0001) %MON ad_dynstat_advvel_min        =  -1.8365873243821E-02
(PID.TID 0000.0001) %MON ad_dynstat_advvel_mean       =   5.0228891147653E-05
(PID.TID 0000.0001) %MON ad_dynstat_advvel_sd         =   1.5451390483487E-03
(PID.TID 0000.0001) %MON ad_dynstat_advvel_del2       =   1.0744354772488E-04
(PID.TID 0000.0001) %MON ad_dynstat_adwvel_max        =   2.1057790258236E+00
(PID.TID 0000.0001) %MON ad_dynstat_adwvel_min        =  -1.1914546008830E+00
(PID.TID 0000.0001) %MON ad_dynstat_adwvel_mean       =   3.0204088308976E-04
(PID.TID 0000.0001) %MON ad_dynstat_adwvel_sd         =   3.2049110474578E-02
(PID.TID 0000.0001) %MON ad_dynstat_adwvel_del2       =   1.6071269761377E-03
(PID.TID 0000.0001) %MON ad_dynstat_adtheta_max       =   5.0027236900501E-03
(PID.TID 0000.0001) %MON ad_dynstat_adtheta_min       =  -5.1043160252036E-03
(PID.TID 0000.0001) %MON ad_dynstat_adtheta_mean      =   5.0871191600876E-07
(PID.TID 0000.0001) %MON ad_dynstat_adtheta_sd        =   1.8883993983367E-04
(PID.TID 0000.0001) %MON ad_dynstat_adtheta_del2      =   1.0186287662783E-05
(PID.TID 0000.0001) %MON ad_dynstat_adsalt_max        =   2.1267455704285E-02
(PID.TID 0000.0001) %MON ad_dynstat_adsalt_min        =  -2.1679720249320E-02
(PID.TID 0000.0001) %MON ad_dynstat_adsalt_mean       =  -2.7402808102593E-06
(PID.TID 0000.0001) %MON ad_dynstat_adsalt_sd         =   8.6649636121267E-04
(PID.TID 0000.0001) %MON ad_dynstat_adsalt_del2       =   4.4720859974032E-05
(PID.TID 0000.0001) %MON ad_dynstat_adsst_max         =   1.8708068145812E-04
(PID.TID 0000.0001) %MON ad_dynstat_adsst_min         =  -1.7152347548464E-04
(PID.TID 0000.0001) %MON ad_dynstat_adsst_mean        =  -4.3414926302050E-07
(PID.TID 0000.0001) %MON ad_dynstat_adsst_sd          =   9.6151576714982E-06
(PID.TID 0000.0001) %MON ad_dynstat_adsst_del2        =   8.2853718871845E-07
(PID.TID 0000.0001) %MON ad_dynstat_adsss_max         =   4.7530226553735E-04
(PID.TID 0000.0001) %MON ad_dynstat_adsss_min         =  -6.6506512836166E-04
(PID.TID 0000.0001) %MON ad_dynstat_adsss_mean        =   2.9733455293322E-07
(PID.TID 0000.0001) %MON ad_dynstat_adsss_sd          =   3.0824227950877E-05
(PID.TID 0000.0001) %MON ad_dynstat_adsss_del2        =   2.8939606461284E-06
(PID.TID 0000.0001) %MON ad_extforcing_adqnet_max     =   0.0000000000000E+00
(PID.TID 0000.0001) %MON ad_extforcing_adqnet_min     =   0.0000000000000E+00
(PID.TID 0000.0001) %MON ad_extforcing_adqnet_mean    =   0.0000000000000E+00
(PID.TID 0000.0001) %MON ad_extforcing_adqnet_sd      =   0.0000000000000E+00
(PID.TID 0000.0001) %MON ad_extforcing_adqnet_del2    =   0.0000000000000E+00
(PID.TID 0000.0001) %MON ad_extforcing_adempmr_max    =   9.0805440153819E+02
(PID.TID 0000.0001) %MON ad_extforcing_adempmr_min    =  -9.8818287441942E+02
(PID.TID 0000.0001) %MON ad_extforcing_adempmr_mean   =   8.6430656841887E-01
(PID.TID 0000.0001) %MON ad_extforcing_adempmr_sd     =   6.6232349280912E+01
(PID.TID 0000.0001) %MON ad_extforcing_adempmr_del2   =   6.1083515558021E+00
(PID.TID 0000.0001) %MON ad_extforcing_adfu_max       =   0.0000000000000E+00
(PID.TID 0000.0001) %MON ad_extforcing_adfu_min       =   0.0000000000000E+00
(PID.TID 0000.0001) %MON ad_extforcing_adfu_mean      =   0.0000000000000E+00
(PID.TID 0000.0001) %MON ad_extforcing_adfu_sd        =   0.0000000000000E+00
(PID.TID 0000.0001) %MON ad_extforcing_adfu_del2      =   0.0000000000000E+00
(PID.TID 0000.0001) %MON ad_extforcing_adfv_max       =   0.0000000000000E+00
(PID.TID 0000.0001) %MON ad_extforcing_adfv_min       =   0.0000000000000E+00
(PID.TID 0000.0001) %MON ad_extforcing_adfv_mean      =   0.0000000000000E+00
(PID.TID 0000.0001) %MON ad_extforcing_adfv_sd        =   0.0000000000000E+00
(PID.TID 0000.0001) %MON ad_extforcing_adfv_del2      =   0.0000000000000E+00
(PID.TID 0000.0001) %MON ad_advcfl_aduvel_max         =   8.7274278787272E-04
(PID.TID 0000.0001) %MON ad_advcfl_advvel_max         =   2.5589164290984E-03
(PID.TID 0000.0001) %MON ad_advcfl_adwvel_max         =   4.2570166538271E+02
(PID.TID 0000.0001) %MON ad_advcfl_adW_hf_max         =   6.0099058642265E+02
(PID.TID 0000.0001) // =======================================================
(PID.TID 0000.0001) // End MONITOR dynamic field statistics
(PID.TID 0000.0001) // =======================================================
 cg2d: Sum(rhs),rhsMax =   7.97082885806155E-13  5.89201674426753E-08
 myIter=  60
 ph-mnc in addummy param  T
 ph-mnc in addummy myiter  60
time,SST,SSS,fu,fv,Q,E-P,i0,i1,a,b =   2.4624E+06  2.8780E-01  3.4582E+01 -2.6094E-02 -3.9427E-02  2.5439E+02  0.0000E+00     1     2  4.5000E-01  5.5000E-01
time,fu0,fu1,fu =   2.4624E+06 -3.5633E-02 -1.4435E-02 -2.6094E-02  4.500000000000000E-01  5.500000000000000E-01
 cg2d: Sum(rhs),rhsMax =   2.04077726939644E-12  1.29859656251116E+01
time,SST,SSS,fu,fv,Q,E-P,i0,i1,a,b =   2.5056E+06  2.6296E-01  3.4578E+01 -2.5740E-02 -3.8767E-02  2.5397E+02  0.0000E+00     1     2  4.6667E-01  5.3333E-01
time,fu0,fu1,fu =   2.5056E+06 -3.5633E-02 -1.4435E-02 -2.5740E-02  4.666666666666667E-01  5.333333333333333E-01
 cg2d: Sum(rhs),rhsMax =   2.20513191040439E-12  1.34416463490861E+01
time,SST,SSS,fu,fv,Q,E-P,i0,i1,a,b =   2.5488E+06  2.3812E-01  3.4573E+01 -2.5387E-02 -3.8106E-02  2.5355E+02  0.0000E+00     1     2  4.8333E-01  5.1667E-01
time,fu0,fu1,fu =   2.5488E+06 -3.5633E-02 -1.4435E-02 -2.5387E-02  4.833333333333333E-01  5.166666666666666E-01
 cg2d: Sum(rhs),rhsMax =   2.17759144049978E-12  1.37009641669029E+01
(PID.TID 0000.0001) // =======================================================
(PID.TID 0000.0001) // Begin MONITOR dynamic field statistics
(PID.TID 0000.0001) // =======================================================
(PID.TID 0000.0001) %MON ad_time_tsnumber             =                    60
(PID.TID 0000.0001) %MON ad_time_secondsf             =   2.5920000000000E+06
(PID.TID 0000.0001) %MON ad_dynstat_adeta_max         =   4.6946681558560E-03
(PID.TID 0000.0001) %MON ad_dynstat_adeta_min         =  -7.5575804311840E-03
(PID.TID 0000.0001) %MON ad_dynstat_adeta_mean        =   8.5261590647884E-06
(PID.TID 0000.0001) %MON ad_dynstat_adeta_sd          =   3.9431076546362E-04
(PID.TID 0000.0001) %MON ad_dynstat_adeta_del2        =   2.9921857400460E-05
(PID.TID 0000.0001) %MON ad_dynstat_aduvel_max        =   5.7758847142304E-03
(PID.TID 0000.0001) %MON ad_dynstat_aduvel_min        =  -7.9563705262073E-03
(PID.TID 0000.0001) %MON ad_dynstat_aduvel_mean       =  -6.4269714124670E-05
(PID.TID 0000.0001) %MON ad_dynstat_aduvel_sd         =   5.0133471215358E-04
(PID.TID 0000.0001) %MON ad_dynstat_aduvel_del2       =   2.7222271975875E-05
(PID.TID 0000.0001) %MON ad_dynstat_advvel_max        =   2.6778647939807E-02
(PID.TID 0000.0001) %MON ad_dynstat_advvel_min        =  -2.1730485838656E-02
(PID.TID 0000.0001) %MON ad_dynstat_advvel_mean       =   3.8733175538435E-05
(PID.TID 0000.0001) %MON ad_dynstat_advvel_sd         =   1.5707311104352E-03
(PID.TID 0000.0001) %MON ad_dynstat_advvel_del2       =   1.0844475810690E-04
(PID.TID 0000.0001) %MON ad_dynstat_adwvel_max        =   2.1033122738236E+00
(PID.TID 0000.0001) %MON ad_dynstat_adwvel_min        =  -1.1924200575798E+00
(PID.TID 0000.0001) %MON ad_dynstat_adwvel_mean       =   3.1108734929735E-04
(PID.TID 0000.0001) %MON ad_dynstat_adwvel_sd         =   3.2172510344998E-02
(PID.TID 0000.0001) %MON ad_dynstat_adwvel_del2       =   1.6797926243093E-03
(PID.TID 0000.0001) %MON ad_dynstat_adtheta_max       =   5.0127506167106E-03
(PID.TID 0000.0001) %MON ad_dynstat_adtheta_min       =  -5.0990650084674E-03
(PID.TID 0000.0001) %MON ad_dynstat_adtheta_mean      =   4.8389172463129E-07
(PID.TID 0000.0001) %MON ad_dynstat_adtheta_sd        =   1.9077828961505E-04
(PID.TID 0000.0001) %MON ad_dynstat_adtheta_del2      =   1.0847455152071E-05
(PID.TID 0000.0001) %MON ad_dynstat_adsalt_max        =   2.1752259571228E-02
(PID.TID 0000.0001) %MON ad_dynstat_adsalt_min        =  -2.1718354204718E-02
(PID.TID 0000.0001) %MON ad_dynstat_adsalt_mean       =  -2.5771470492910E-06
(PID.TID 0000.0001) %MON ad_dynstat_adsalt_sd         =   8.7607810472808E-04
(PID.TID 0000.0001) %MON ad_dynstat_adsalt_del2       =   4.7818407004426E-05
(PID.TID 0000.0001) %MON ad_dynstat_adsst_max         =   1.8680246939442E-04
(PID.TID 0000.0001) %MON ad_dynstat_adsst_min         =  -1.7200577509234E-04
(PID.TID 0000.0001) %MON ad_dynstat_adsst_mean        =  -4.3350811235674E-07
(PID.TID 0000.0001) %MON ad_dynstat_adsst_sd          =   9.5345592696423E-06
(PID.TID 0000.0001) %MON ad_dynstat_adsst_del2        =   8.1196575900105E-07
(PID.TID 0000.0001) %MON ad_dynstat_adsss_max         =   4.7750192053864E-04
(PID.TID 0000.0001) %MON ad_dynstat_adsss_min         =  -6.6578815387473E-04
(PID.TID 0000.0001) %MON ad_dynstat_adsss_mean        =   3.0191324264802E-07
(PID.TID 0000.0001) %MON ad_dynstat_adsss_sd          =   3.0655556974885E-05
(PID.TID 0000.0001) %MON ad_dynstat_adsss_del2        =   2.8225628881389E-06
(PID.TID 0000.0001) %MON ad_extforcing_adqnet_max     =   0.0000000000000E+00
(PID.TID 0000.0001) %MON ad_extforcing_adqnet_min     =   0.0000000000000E+00
(PID.TID 0000.0001) %MON ad_extforcing_adqnet_mean    =   0.0000000000000E+00
(PID.TID 0000.0001) %MON ad_extforcing_adqnet_sd      =   0.0000000000000E+00
(PID.TID 0000.0001) %MON ad_extforcing_adqnet_del2    =   0.0000000000000E+00
(PID.TID 0000.0001) %MON ad_extforcing_adempmr_max    =   9.3195268049349E+02
(PID.TID 0000.0001) %MON ad_extforcing_adempmr_min    =  -1.0148090205852E+03
(PID.TID 0000.0001) %MON ad_extforcing_adempmr_mean   =   8.6168397029030E-01
(PID.TID 0000.0001) %MON ad_extforcing_adempmr_sd     =   6.7361176183909E+01
(PID.TID 0000.0001) %MON ad_extforcing_adempmr_del2   =   6.2072654394132E+00
(PID.TID 0000.0001) %MON ad_extforcing_adfu_max       =   0.0000000000000E+00
(PID.TID 0000.0001) %MON ad_extforcing_adfu_min       =   0.0000000000000E+00
(PID.TID 0000.0001) %MON ad_extforcing_adfu_mean      =   0.0000000000000E+00
(PID.TID 0000.0001) %MON ad_extforcing_adfu_sd        =   0.0000000000000E+00
(PID.TID 0000.0001) %MON ad_extforcing_adfu_del2      =   0.0000000000000E+00
(PID.TID 0000.0001) %MON ad_extforcing_adfv_max       =   0.0000000000000E+00
(PID.TID 0000.0001) %MON ad_extforcing_adfv_min       =   0.0000000000000E+00
(PID.TID 0000.0001) %MON ad_extforcing_adfv_mean      =   0.0000000000000E+00
(PID.TID 0000.0001) %MON ad_extforcing_adfv_sd        =   0.0000000000000E+00
(PID.TID 0000.0001) %MON ad_extforcing_adfv_del2      =   0.0000000000000E+00
(PID.TID 0000.0001) %MON ad_advcfl_aduvel_max         =   8.8334613233898E-04
(PID.TID 0000.0001) %MON ad_advcfl_advvel_max         =   2.6013309084129E-03
(PID.TID 0000.0001) %MON ad_advcfl_adwvel_max         =   4.2582170281511E+02
(PID.TID 0000.0001) %MON ad_advcfl_adW_hf_max         =   6.0116005103310E+02
(PID.TID 0000.0001) // =======================================================
(PID.TID 0000.0001) // End MONITOR dynamic field statistics
(PID.TID 0000.0001) // =======================================================
 cg2d: Sum(rhs),rhsMax =   9.02139474234787E-13  5.61037682237096E-08
(PID.TID 0000.0001) // =======================================================
(PID.TID 0000.0001) // Begin MONITOR dynamic field statistics
(PID.TID 0000.0001) // =======================================================
(PID.TID 0000.0001) %MON ad_time_tsnumber             =                    59
(PID.TID 0000.0001) %MON ad_time_secondsf             =   2.5488000000000E+06
(PID.TID 0000.0001) %MON ad_dynstat_adeta_max         =   4.3570103822314E-03
(PID.TID 0000.0001) %MON ad_dynstat_adeta_min         =  -7.1740432288034E-03
(PID.TID 0000.0001) %MON ad_dynstat_adeta_mean        =   8.4279643307238E-06
(PID.TID 0000.0001) %MON ad_dynstat_adeta_sd          =   3.7661251722670E-04
(PID.TID 0000.0001) %MON ad_dynstat_adeta_del2        =   2.8131923068456E-05
(PID.TID 0000.0001) %MON ad_dynstat_aduvel_max        =   5.7625938466080E-03
(PID.TID 0000.0001) %MON ad_dynstat_aduvel_min        =  -7.9981242618124E-03
(PID.TID 0000.0001) %MON ad_dynstat_aduvel_mean       =  -5.3589537366251E-05
(PID.TID 0000.0001) %MON ad_dynstat_aduvel_sd         =   4.9169996189626E-04
(PID.TID 0000.0001) %MON ad_dynstat_aduvel_del2       =   2.8021736672984E-05
(PID.TID 0000.0001) %MON ad_dynstat_advvel_max        =   2.7269912464741E-02
(PID.TID 0000.0001) %MON ad_dynstat_advvel_min        =  -2.4628276239275E-02
(PID.TID 0000.0001) %MON ad_dynstat_advvel_mean       =   2.7521600820858E-05
(PID.TID 0000.0001) %MON ad_dynstat_advvel_sd         =   1.5843932239572E-03
(PID.TID 0000.0001) %MON ad_dynstat_advvel_del2       =   1.0892631784824E-04
(PID.TID 0000.0001) %MON ad_dynstat_adwvel_max        =   2.1025983317298E+00
(PID.TID 0000.0001) %MON ad_dynstat_adwvel_min        =  -1.1948476230074E+00
(PID.TID 0000.0001) %MON ad_dynstat_adwvel_mean       =   3.1805398780132E-04
(PID.TID 0000.0001) %MON ad_dynstat_adwvel_sd         =   3.2387443321079E-02
(PID.TID 0000.0001) %MON ad_dynstat_adwvel_del2       =   1.7671505995548E-03
(PID.TID 0000.0001) %MON ad_dynstat_adtheta_max       =   5.0188831051888E-03
(PID.TID 0000.0001) %MON ad_dynstat_adtheta_min       =  -5.0955654669607E-03
(PID.TID 0000.0001) %MON ad_dynstat_adtheta_mean      =   4.9068426240439E-07
(PID.TID 0000.0001) %MON ad_dynstat_adtheta_sd        =   1.9301663674462E-04
(PID.TID 0000.0001) %MON ad_dynstat_adtheta_del2      =   1.1535513022909E-05
(PID.TID 0000.0001) %MON ad_dynstat_adsalt_max        =   2.2198200117316E-02
(PID.TID 0000.0001) %MON ad_dynstat_adsalt_min        =  -2.1739969030216E-02
(PID.TID 0000.0001) %MON ad_dynstat_adsalt_mean       =  -2.5916407288228E-06
(PID.TID 0000.0001) %MON ad_dynstat_adsalt_sd         =   8.8717413216021E-04
(PID.TID 0000.0001) %MON ad_dynstat_adsalt_del2       =   5.1096881152592E-05
(PID.TID 0000.0001) %MON ad_dynstat_adsst_max         =   1.9197983084279E-04
(PID.TID 0000.0001) %MON ad_dynstat_adsst_min         =  -1.7958282076987E-04
(PID.TID 0000.0001) %MON ad_dynstat_adsst_mean        =  -4.1711306408141E-07
(PID.TID 0000.0001) %MON ad_dynstat_adsst_sd          =   9.8623732468745E-06
(PID.TID 0000.0001) %MON ad_dynstat_adsst_del2        =   8.6556994001741E-07
(PID.TID 0000.0001) %MON ad_dynstat_adsss_max         =   4.9980827793332E-04
(PID.TID 0000.0001) %MON ad_dynstat_adsss_min         =  -6.8247524797944E-04
(PID.TID 0000.0001) %MON ad_dynstat_adsss_mean        =   2.6534636459377E-07
(PID.TID 0000.0001) %MON ad_dynstat_adsss_sd          =   3.1700630917695E-05
(PID.TID 0000.0001) %MON ad_dynstat_adsss_del2        =   3.0255370392335E-06
(PID.TID 0000.0001) %MON ad_extforcing_adqnet_max     =   0.0000000000000E+00
(PID.TID 0000.0001) %MON ad_extforcing_adqnet_min     =   0.0000000000000E+00
(PID.TID 0000.0001) %MON ad_extforcing_adqnet_mean    =   0.0000000000000E+00
(PID.TID 0000.0001) %MON ad_extforcing_adqnet_sd      =   0.0000000000000E+00
(PID.TID 0000.0001) %MON ad_extforcing_adqnet_del2    =   0.0000000000000E+00
(PID.TID 0000.0001) %MON ad_extforcing_adempmr_max    =   9.5556821512958E+02
(PID.TID 0000.0001) %MON ad_extforcing_adempmr_min    =  -1.0411703902305E+03
(PID.TID 0000.0001) %MON ad_extforcing_adempmr_mean   =   8.5858629116338E-01
(PID.TID 0000.0001) %MON ad_extforcing_adempmr_sd     =   6.8454832106834E+01
(PID.TID 0000.0001) %MON ad_extforcing_adempmr_del2   =   6.3033789340268E+00
(PID.TID 0000.0001) %MON ad_extforcing_adfu_max       =   0.0000000000000E+00
(PID.TID 0000.0001) %MON ad_extforcing_adfu_min       =   0.0000000000000E+00
(PID.TID 0000.0001) %MON ad_extforcing_adfu_mean      =   0.0000000000000E+00
(PID.TID 0000.0001) %MON ad_extforcing_adfu_sd        =   0.0000000000000E+00
(PID.TID 0000.0001) %MON ad_extforcing_adfu_del2      =   0.0000000000000E+00
(PID.TID 0000.0001) %MON ad_extforcing_adfv_max       =   0.0000000000000E+00
(PID.TID 0000.0001) %MON ad_extforcing_adfv_min       =   0.0000000000000E+00
(PID.TID 0000.0001) %MON ad_extforcing_adfv_mean      =   0.0000000000000E+00
(PID.TID 0000.0001) %MON ad_extforcing_adfv_sd        =   0.0000000000000E+00
(PID.TID 0000.0001) %MON ad_extforcing_adfv_del2      =   0.0000000000000E+00
(PID.TID 0000.0001) %MON ad_advcfl_aduvel_max         =   8.9714878038710E-04
(PID.TID 0000.0001) %MON ad_advcfl_advvel_max         =   2.6490533175424E-03
(PID.TID 0000.0001) %MON ad_advcfl_adwvel_max         =   4.2602226952245E+02
(PID.TID 0000.0001) %MON ad_advcfl_adW_hf_max         =   6.0144320403170E+02
(PID.TID 0000.0001) // =======================================================
(PID.TID 0000.0001) // End MONITOR dynamic field statistics
(PID.TID 0000.0001) // =======================================================
 cg2d: Sum(rhs),rhsMax =   1.05667731509218E-12  5.17894725825538E-08
(PID.TID 0000.0001) // =======================================================
(PID.TID 0000.0001) // Begin MONITOR dynamic field statistics
(PID.TID 0000.0001) // =======================================================
(PID.TID 0000.0001) %MON ad_time_tsnumber             =                    58
(PID.TID 0000.0001) %MON ad_time_secondsf             =   2.5056000000000E+06
(PID.TID 0000.0001) %MON ad_dynstat_adeta_max         =   3.9542332450810E-03
(PID.TID 0000.0001) %MON ad_dynstat_adeta_min         =  -6.6236891946658E-03
(PID.TID 0000.0001) %MON ad_dynstat_adeta_mean        =   8.1815049596304E-06
(PID.TID 0000.0001) %MON ad_dynstat_adeta_sd          =   3.5691265067607E-04
(PID.TID 0000.0001) %MON ad_dynstat_adeta_del2        =   2.6823273344854E-05
(PID.TID 0000.0001) %MON ad_dynstat_aduvel_max        =   5.6526365808054E-03
(PID.TID 0000.0001) %MON ad_dynstat_aduvel_min        =  -8.1164860373287E-03
(PID.TID 0000.0001) %MON ad_dynstat_aduvel_mean       =  -4.6494539595535E-05
(PID.TID 0000.0001) %MON ad_dynstat_aduvel_sd         =   4.8495822706989E-04
(PID.TID 0000.0001) %MON ad_dynstat_aduvel_del2       =   2.8042734191549E-05
(PID.TID 0000.0001) %MON ad_dynstat_advvel_max        =   2.7817743749414E-02
(PID.TID 0000.0001) %MON ad_dynstat_advvel_min        =  -2.7066514686837E-02
(PID.TID 0000.0001) %MON ad_dynstat_advvel_mean       =   1.7247504611077E-05
(PID.TID 0000.0001) %MON ad_dynstat_advvel_sd         =   1.5903687707902E-03
(PID.TID 0000.0001) %MON ad_dynstat_advvel_del2       =   1.0789176650931E-04
(PID.TID 0000.0001) %MON ad_dynstat_adwvel_max        =   2.1028925390508E+00
(PID.TID 0000.0001) %MON ad_dynstat_adwvel_min        =  -1.1953559979677E+00
(PID.TID 0000.0001) %MON ad_dynstat_adwvel_mean       =   3.2256089404782E-04
(PID.TID 0000.0001) %MON ad_dynstat_adwvel_sd         =   3.2529283391778E-02
(PID.TID 0000.0001) %MON ad_dynstat_adwvel_del2       =   1.8387004036133E-03
(PID.TID 0000.0001) %MON ad_dynstat_adtheta_max       =   5.0141515932696E-03
(PID.TID 0000.0001) %MON ad_dynstat_adtheta_min       =  -5.0877708829055E-03
(PID.TID 0000.0001) %MON ad_dynstat_adtheta_mean      =   4.8533502687206E-07
(PID.TID 0000.0001) %MON ad_dynstat_adtheta_sd        =   1.9502045516753E-04
(PID.TID 0000.0001) %MON ad_dynstat_adtheta_del2      =   1.2074759954324E-05
(PID.TID 0000.0001) %MON ad_dynstat_adsalt_max        =   2.2555823230251E-02
(PID.TID 0000.0001) %MON ad_dynstat_adsalt_min        =  -2.1714376339736E-02
(PID.TID 0000.0001) %MON ad_dynstat_adsalt_mean       =  -2.5336938364402E-06
(PID.TID 0000.0001) %MON ad_dynstat_adsalt_sd         =   8.9734891130805E-04
(PID.TID 0000.0001) %MON ad_dynstat_adsalt_del2       =   5.3690777439490E-05
(PID.TID 0000.0001) %MON ad_dynstat_adsst_max         =   1.9537002068163E-04
(PID.TID 0000.0001) %MON ad_dynstat_adsst_min         =  -1.8687180323309E-04
(PID.TID 0000.0001) %MON ad_dynstat_adsst_mean        =  -3.9852323828499E-07
(PID.TID 0000.0001) %MON ad_dynstat_adsst_sd          =   1.0047675734155E-05
(PID.TID 0000.0001) %MON ad_dynstat_adsst_del2        =   8.7744328622288E-07
(PID.TID 0000.0001) %MON ad_dynstat_adsss_max         =   5.2142608808935E-04
(PID.TID 0000.0001) %MON ad_dynstat_adsss_min         =  -6.9400285109833E-04
(PID.TID 0000.0001) %MON ad_dynstat_adsss_mean        =   2.3275561991628E-07
(PID.TID 0000.0001) %MON ad_dynstat_adsss_sd          =   3.2319319677189E-05
(PID.TID 0000.0001) %MON ad_dynstat_adsss_del2        =   3.0685870529270E-06
(PID.TID 0000.0001) %MON ad_extforcing_adqnet_max     =   0.0000000000000E+00
(PID.TID 0000.0001) %MON ad_extforcing_adqnet_min     =   0.0000000000000E+00
(PID.TID 0000.0001) %MON ad_extforcing_adqnet_mean    =   0.0000000000000E+00
(PID.TID 0000.0001) %MON ad_extforcing_adqnet_sd      =   0.0000000000000E+00
(PID.TID 0000.0001) %MON ad_extforcing_adqnet_del2    =   0.0000000000000E+00
(PID.TID 0000.0001) %MON ad_extforcing_adempmr_max    =   9.7958024388378E+02
(PID.TID 0000.0001) %MON ad_extforcing_adempmr_min    =  -1.0678694265156E+03
(PID.TID 0000.0001) %MON ad_extforcing_adempmr_mean   =   8.5455286607718E-01
(PID.TID 0000.0001) %MON ad_extforcing_adempmr_sd     =   6.9579458472598E+01
(PID.TID 0000.0001) %MON ad_extforcing_adempmr_del2   =   6.4039544437263E+00
(PID.TID 0000.0001) %MON ad_extforcing_adfu_max       =   0.0000000000000E+00
(PID.TID 0000.0001) %MON ad_extforcing_adfu_min       =   0.0000000000000E+00
(PID.TID 0000.0001) %MON ad_extforcing_adfu_mean      =   0.0000000000000E+00
(PID.TID 0000.0001) %MON ad_extforcing_adfu_sd        =   0.0000000000000E+00
(PID.TID 0000.0001) %MON ad_extforcing_adfu_del2      =   0.0000000000000E+00
(PID.TID 0000.0001) %MON ad_extforcing_adfv_max       =   0.0000000000000E+00
(PID.TID 0000.0001) %MON ad_extforcing_adfv_min       =   0.0000000000000E+00
(PID.TID 0000.0001) %MON ad_extforcing_adfv_mean      =   0.0000000000000E+00
(PID.TID 0000.0001) %MON ad_extforcing_adfv_sd        =   0.0000000000000E+00
(PID.TID 0000.0001) %MON ad_extforcing_adfv_del2      =   0.0000000000000E+00
(PID.TID 0000.0001) %MON ad_advcfl_aduvel_max         =   9.1042540864053E-04
(PID.TID 0000.0001) %MON ad_advcfl_advvel_max         =   2.7022707337697E-03
(PID.TID 0000.0001) %MON ad_advcfl_adwvel_max         =   4.2947823157601E+02
(PID.TID 0000.0001) %MON ad_advcfl_adW_hf_max         =   6.0632220928378E+02
(PID.TID 0000.0001) // =======================================================
(PID.TID 0000.0001) // End MONITOR dynamic field statistics
(PID.TID 0000.0001) // =======================================================
 cg2d: Sum(rhs),rhsMax =   1.33882835373633E-12  4.75415818972044E-08
time,SST,SSS,fu,fv,Q,E-P,i0,i1,a,b =   2.3328E+06  3.6231E-01  3.4597E+01 -2.7154E-02 -4.1408E-02  2.5565E+02  0.0000E+00     1     2  4.0000E-01  6.0000E-01
time,fu0,fu1,fu =   2.3328E+06 -3.5633E-02 -1.4435E-02 -2.7154E-02  4.000000000000000E-01  6.000000000000000E-01
 cg2d: Sum(rhs),rhsMax =   8.21377688087210E-13  1.05293280195721E+01
time,SST,SSS,fu,fv,Q,E-P,i0,i1,a,b =   2.3760E+06  3.3747E-01  3.4592E+01 -2.6800E-02 -4.0748E-02  2.5523E+02  0.0000E+00     1     2  4.1667E-01  5.8333E-01
time,fu0,fu1,fu =   2.3760E+06 -3.5633E-02 -1.4435E-02 -2.6800E-02  4.166666666666667E-01  5.833333333333333E-01
 cg2d: Sum(rhs),rhsMax =   1.40624317745974E-12  1.15144713398793E+01
time,SST,SSS,fu,fv,Q,E-P,i0,i1,a,b =   2.4192E+06  3.1264E-01  3.4587E+01 -2.6447E-02 -4.0088E-02  2.5481E+02  0.0000E+00     1     2  4.3333E-01  5.6667E-01
time,fu0,fu1,fu =   2.4192E+06 -3.5633E-02 -1.4435E-02 -2.6447E-02  4.333333333333333E-01  5.666666666666667E-01
 cg2d: Sum(rhs),rhsMax =   1.27697852292386E-12  1.23395344882039E+01
(PID.TID 0000.0001) // =======================================================
(PID.TID 0000.0001) // Begin MONITOR dynamic field statistics
(PID.TID 0000.0001) // =======================================================
(PID.TID 0000.0001) %MON ad_time_tsnumber             =                    57
(PID.TID 0000.0001) %MON ad_time_secondsf             =   2.4624000000000E+06
(PID.TID 0000.0001) %MON ad_dynstat_adeta_max         =   3.6138484767226E-03
(PID.TID 0000.0001) %MON ad_dynstat_adeta_min         =  -6.0802295532035E-03
(PID.TID 0000.0001) %MON ad_dynstat_adeta_mean        =   7.8452127022604E-06
(PID.TID 0000.0001) %MON ad_dynstat_adeta_sd          =   3.4137757013827E-04
(PID.TID 0000.0001) %MON ad_dynstat_adeta_del2        =   2.6883798731882E-05
(PID.TID 0000.0001) %MON ad_dynstat_aduvel_max        =   5.4367895998305E-03
(PID.TID 0000.0001) %MON ad_dynstat_aduvel_min        =  -8.1667274573033E-03
(PID.TID 0000.0001) %MON ad_dynstat_aduvel_mean       =  -3.9230111970350E-05
(PID.TID 0000.0001) %MON ad_dynstat_aduvel_sd         =   4.7901264134995E-04
(PID.TID 0000.0001) %MON ad_dynstat_aduvel_del2       =   2.7924017492794E-05
(PID.TID 0000.0001) %MON ad_dynstat_advvel_max        =   2.8345327226858E-02
(PID.TID 0000.0001) %MON ad_dynstat_advvel_min        =  -2.9112617451162E-02
(PID.TID 0000.0001) %MON ad_dynstat_advvel_mean       =   8.3178800989805E-06
(PID.TID 0000.0001) %MON ad_dynstat_advvel_sd         =   1.6016253820809E-03
(PID.TID 0000.0001) %MON ad_dynstat_advvel_del2       =   1.0646021886673E-04
(PID.TID 0000.0001) %MON ad_dynstat_adwvel_max        =   2.0995889985412E+00
(PID.TID 0000.0001) %MON ad_dynstat_adwvel_min        =  -1.1920151755983E+00
(PID.TID 0000.0001) %MON ad_dynstat_adwvel_mean       =   3.2613975189074E-04
(PID.TID 0000.0001) %MON ad_dynstat_adwvel_sd         =   3.2487501598689E-02
(PID.TID 0000.0001) %MON ad_dynstat_adwvel_del2       =   1.8716735745083E-03
(PID.TID 0000.0001) %MON ad_dynstat_adtheta_max       =   4.9960458554314E-03
(PID.TID 0000.0001) %MON ad_dynstat_adtheta_min       =  -5.0704717298806E-03
(PID.TID 0000.0001) %MON ad_dynstat_adtheta_mean      =   4.8211919028237E-07
(PID.TID 0000.0001) %MON ad_dynstat_adtheta_sd        =   1.9651277924460E-04
(PID.TID 0000.0001) %MON ad_dynstat_adtheta_del2      =   1.2467063072125E-05
(PID.TID 0000.0001) %MON ad_dynstat_adsalt_max        =   2.2805969211285E-02
(PID.TID 0000.0001) %MON ad_dynstat_adsalt_min        =  -2.1630757667620E-02
(PID.TID 0000.0001) %MON ad_dynstat_adsalt_mean       =  -2.4840152398271E-06
(PID.TID 0000.0001) %MON ad_dynstat_adsalt_sd         =   9.0526299399922E-04
(PID.TID 0000.0001) %MON ad_dynstat_adsalt_del2       =   5.5643487470245E-05
(PID.TID 0000.0001) %MON ad_dynstat_adsst_max         =   1.9645417035313E-04
(PID.TID 0000.0001) %MON ad_dynstat_adsst_min         =  -1.9194064310108E-04
(PID.TID 0000.0001) %MON ad_dynstat_adsst_mean        =  -3.7555925578675E-07
(PID.TID 0000.0001) %MON ad_dynstat_adsst_sd          =   1.0062694284792E-05
(PID.TID 0000.0001) %MON ad_dynstat_adsst_del2        =   8.6148205096796E-07
(PID.TID 0000.0001) %MON ad_dynstat_adsss_max         =   5.3683877653267E-04
(PID.TID 0000.0001) %MON ad_dynstat_adsss_min         =  -6.9873030138927E-04
(PID.TID 0000.0001) %MON ad_dynstat_adsss_mean        =   1.9014936014089E-07
(PID.TID 0000.0001) %MON ad_dynstat_adsss_sd          =   3.2420472483862E-05
(PID.TID 0000.0001) %MON ad_dynstat_adsss_del2        =   3.0255342827086E-06
(PID.TID 0000.0001) %MON ad_extforcing_adqnet_max     =   0.0000000000000E+00
(PID.TID 0000.0001) %MON ad_extforcing_adqnet_min     =   0.0000000000000E+00
(PID.TID 0000.0001) %MON ad_extforcing_adqnet_mean    =   0.0000000000000E+00
(PID.TID 0000.0001) %MON ad_extforcing_adqnet_sd      =   0.0000000000000E+00
(PID.TID 0000.0001) %MON ad_extforcing_adqnet_del2    =   0.0000000000000E+00
(PID.TID 0000.0001) %MON ad_extforcing_adempmr_max    =   1.0037091356953E+03
(PID.TID 0000.0001) %MON ad_extforcing_adempmr_min    =  -1.0945449824578E+03
(PID.TID 0000.0001) %MON ad_extforcing_adempmr_mean   =   8.4968099515957E-01
(PID.TID 0000.0001) %MON ad_extforcing_adempmr_sd     =   7.0693604602624E+01
(PID.TID 0000.0001) %MON ad_extforcing_adempmr_del2   =   6.5035750383799E+00
(PID.TID 0000.0001) %MON ad_extforcing_adfu_max       =   0.0000000000000E+00
(PID.TID 0000.0001) %MON ad_extforcing_adfu_min       =   0.0000000000000E+00
(PID.TID 0000.0001) %MON ad_extforcing_adfu_mean      =   0.0000000000000E+00
(PID.TID 0000.0001) %MON ad_extforcing_adfu_sd        =   0.0000000000000E+00
(PID.TID 0000.0001) %MON ad_extforcing_adfu_del2      =   0.0000000000000E+00
(PID.TID 0000.0001) %MON ad_extforcing_adfv_max       =   0.0000000000000E+00
(PID.TID 0000.0001) %MON ad_extforcing_adfv_min       =   0.0000000000000E+00
(PID.TID 0000.0001) %MON ad_extforcing_adfv_mean      =   0.0000000000000E+00
(PID.TID 0000.0001) %MON ad_extforcing_adfv_sd        =   0.0000000000000E+00
(PID.TID 0000.0001) %MON ad_extforcing_adfv_del2      =   0.0000000000000E+00
(PID.TID 0000.0001) %MON ad_advcfl_aduvel_max         =   9.1606098358032E-04
(PID.TID 0000.0001) %MON ad_advcfl_advvel_max         =   2.8280573302558E-03
(PID.TID 0000.0001) %MON ad_advcfl_adwvel_max         =   4.3124734769788E+02
(PID.TID 0000.0001) %MON ad_advcfl_adW_hf_max         =   6.0881978498524E+02
(PID.TID 0000.0001) // =======================================================
(PID.TID 0000.0001) // End MONITOR dynamic field statistics
(PID.TID 0000.0001) // =======================================================
 cg2d: Sum(rhs),rhsMax =   1.60707905316748E-12  4.44729278137247E-08
(PID.TID 0000.0001) // =======================================================
(PID.TID 0000.0001) // Begin MONITOR dynamic field statistics
(PID.TID 0000.0001) // =======================================================
(PID.TID 0000.0001) %MON ad_time_tsnumber             =                    56
(PID.TID 0000.0001) %MON ad_time_secondsf             =   2.4192000000000E+06
(PID.TID 0000.0001) %MON ad_dynstat_adeta_max         =   3.3687608882663E-03
(PID.TID 0000.0001) %MON ad_dynstat_adeta_min         =  -5.6594634388410E-03
(PID.TID 0000.0001) %MON ad_dynstat_adeta_mean        =   7.4314257482509E-06
(PID.TID 0000.0001) %MON ad_dynstat_adeta_sd          =   3.3044122375570E-04
(PID.TID 0000.0001) %MON ad_dynstat_adeta_del2        =   2.7631474385687E-05
(PID.TID 0000.0001) %MON ad_dynstat_aduvel_max        =   5.1408049873168E-03
(PID.TID 0000.0001) %MON ad_dynstat_aduvel_min        =  -8.1153101128508E-03
(PID.TID 0000.0001) %MON ad_dynstat_aduvel_mean       =  -3.1909777606386E-05
(PID.TID 0000.0001) %MON ad_dynstat_aduvel_sd         =   4.7497299714146E-04
(PID.TID 0000.0001) %MON ad_dynstat_aduvel_del2       =   2.7818426552536E-05
(PID.TID 0000.0001) %MON ad_dynstat_advvel_max        =   2.8724294293216E-02
(PID.TID 0000.0001) %MON ad_dynstat_advvel_min        =  -3.0853503436297E-02
(PID.TID 0000.0001) %MON ad_dynstat_advvel_mean       =   8.4249737886577E-07
(PID.TID 0000.0001) %MON ad_dynstat_advvel_sd         =   1.6239308507661E-03
(PID.TID 0000.0001) %MON ad_dynstat_advvel_del2       =   1.0537022179971E-04
(PID.TID 0000.0001) %MON ad_dynstat_adwvel_max        =   2.0908222929903E+00
(PID.TID 0000.0001) %MON ad_dynstat_adwvel_min        =  -1.1849874947093E+00
(PID.TID 0000.0001) %MON ad_dynstat_adwvel_mean       =   3.2848478609445E-04
(PID.TID 0000.0001) %MON ad_dynstat_adwvel_sd         =   3.2286508547640E-02
(PID.TID 0000.0001) %MON ad_dynstat_adwvel_del2       =   1.8794798050653E-03
(PID.TID 0000.0001) %MON ad_dynstat_adtheta_max       =   4.9658367045106E-03
(PID.TID 0000.0001) %MON ad_dynstat_adtheta_min       =  -5.0414977259120E-03
(PID.TID 0000.0001) %MON ad_dynstat_adtheta_mean      =   4.8076600189740E-07
(PID.TID 0000.0001) %MON ad_dynstat_adtheta_sd        =   1.9746145802260E-04
(PID.TID 0000.0001) %MON ad_dynstat_adtheta_del2      =   1.2742789801275E-05
(PID.TID 0000.0001) %MON ad_dynstat_adsalt_max        =   2.2953147122178E-02
(PID.TID 0000.0001) %MON ad_dynstat_adsalt_min        =  -2.1494687811363E-02
(PID.TID 0000.0001) %MON ad_dynstat_adsalt_mean       =  -2.4407848627909E-06
(PID.TID 0000.0001) %MON ad_dynstat_adsalt_sd         =   9.1069775834769E-04
(PID.TID 0000.0001) %MON ad_dynstat_adsalt_del2       =   5.7079980810527E-05
(PID.TID 0000.0001) %MON ad_dynstat_adsst_max         =   1.9565418889611E-04
(PID.TID 0000.0001) %MON ad_dynstat_adsst_min         =  -1.9378334570646E-04
(PID.TID 0000.0001) %MON ad_dynstat_adsst_mean        =  -3.4858132016112E-07
(PID.TID 0000.0001) %MON ad_dynstat_adsst_sd          =   9.9600454500127E-06
(PID.TID 0000.0001) %MON ad_dynstat_adsst_del2        =   8.3532914474567E-07
(PID.TID 0000.0001) %MON ad_dynstat_adsss_max         =   5.4322608067523E-04
(PID.TID 0000.0001) %MON ad_dynstat_adsss_min         =  -6.9790475160940E-04
(PID.TID 0000.0001) %MON ad_dynstat_adsss_mean        =   1.3985757533654E-07
(PID.TID 0000.0001) %MON ad_dynstat_adsss_sd          =   3.2161383617628E-05
(PID.TID 0000.0001) %MON ad_dynstat_adsss_del2        =   2.9520194287690E-06
(PID.TID 0000.0001) %MON ad_extforcing_adqnet_max     =   0.0000000000000E+00
(PID.TID 0000.0001) %MON ad_extforcing_adqnet_min     =   0.0000000000000E+00
(PID.TID 0000.0001) %MON ad_extforcing_adqnet_mean    =   0.0000000000000E+00
(PID.TID 0000.0001) %MON ad_extforcing_adqnet_sd      =   0.0000000000000E+00
(PID.TID 0000.0001) %MON ad_extforcing_adqnet_del2    =   0.0000000000000E+00
(PID.TID 0000.0001) %MON ad_extforcing_adempmr_max    =   1.0277942445475E+03
(PID.TID 0000.0001) %MON ad_extforcing_adempmr_min    =  -1.1210468747370E+03
(PID.TID 0000.0001) %MON ad_extforcing_adempmr_mean   =   8.4385532698307E-01
(PID.TID 0000.0001) %MON ad_extforcing_adempmr_sd     =   7.1782455412350E+01
(PID.TID 0000.0001) %MON ad_extforcing_adempmr_del2   =   6.6006473380258E+00
(PID.TID 0000.0001) %MON ad_extforcing_adfu_max       =   0.0000000000000E+00
(PID.TID 0000.0001) %MON ad_extforcing_adfu_min       =   0.0000000000000E+00
(PID.TID 0000.0001) %MON ad_extforcing_adfu_mean      =   0.0000000000000E+00
(PID.TID 0000.0001) %MON ad_extforcing_adfu_sd        =   0.0000000000000E+00
(PID.TID 0000.0001) %MON ad_extforcing_adfu_del2      =   0.0000000000000E+00
(PID.TID 0000.0001) %MON ad_extforcing_adfv_max       =   0.0000000000000E+00
(PID.TID 0000.0001) %MON ad_extforcing_adfv_min       =   0.0000000000000E+00
(PID.TID 0000.0001) %MON ad_extforcing_adfv_mean      =   0.0000000000000E+00
(PID.TID 0000.0001) %MON ad_extforcing_adfv_sd        =   0.0000000000000E+00
(PID.TID 0000.0001) %MON ad_extforcing_adfv_del2      =   0.0000000000000E+00
(PID.TID 0000.0001) %MON ad_advcfl_aduvel_max         =   9.1029350531213E-04
(PID.TID 0000.0001) %MON ad_advcfl_advvel_max         =   2.9971704434844E-03
(PID.TID 0000.0001) %MON ad_advcfl_adwvel_max         =   4.3094417198719E+02
(PID.TID 0000.0001) %MON ad_advcfl_adW_hf_max         =   6.0839177221721E+02
(PID.TID 0000.0001) // =======================================================
(PID.TID 0000.0001) // End MONITOR dynamic field statistics
(PID.TID 0000.0001) // =======================================================
 cg2d: Sum(rhs),rhsMax =   1.79547696155247E-12  4.29476416938272E-08
(PID.TID 0000.0001) // =======================================================
(PID.TID 0000.0001) // Begin MONITOR dynamic field statistics
(PID.TID 0000.0001) // =======================================================
(PID.TID 0000.0001) %MON ad_time_tsnumber             =                    55
(PID.TID 0000.0001) %MON ad_time_secondsf             =   2.3760000000000E+06
(PID.TID 0000.0001) %MON ad_dynstat_adeta_max         =   3.1951555604802E-03
(PID.TID 0000.0001) %MON ad_dynstat_adeta_min         =  -5.3969995667346E-03
(PID.TID 0000.0001) %MON ad_dynstat_adeta_mean        =   6.9526071847239E-06
(PID.TID 0000.0001) %MON ad_dynstat_adeta_sd          =   3.2246302144588E-04
(PID.TID 0000.0001) %MON ad_dynstat_adeta_del2        =   2.8421416805513E-05
(PID.TID 0000.0001) %MON ad_dynstat_aduvel_max        =   5.2216667590778E-03
(PID.TID 0000.0001) %MON ad_dynstat_aduvel_min        =  -7.9737963051273E-03
(PID.TID 0000.0001) %MON ad_dynstat_aduvel_mean       =  -2.4651676321862E-05
(PID.TID 0000.0001) %MON ad_dynstat_aduvel_sd         =   4.7344931521768E-04
(PID.TID 0000.0001) %MON ad_dynstat_aduvel_del2       =   2.7925259421866E-05
(PID.TID 0000.0001) %MON ad_dynstat_advvel_max        =   2.8907064680389E-02
(PID.TID 0000.0001) %MON ad_dynstat_advvel_min        =  -3.2336397235129E-02
(PID.TID 0000.0001) %MON ad_dynstat_advvel_mean       =  -5.2946021244007E-06
(PID.TID 0000.0001) %MON ad_dynstat_advvel_sd         =   1.6533819595605E-03
(PID.TID 0000.0001) %MON ad_dynstat_advvel_del2       =   1.0485358545672E-04
(PID.TID 0000.0001) %MON ad_dynstat_adwvel_max        =   2.0764274639768E+00
(PID.TID 0000.0001) %MON ad_dynstat_adwvel_min        =  -1.1751670092183E+00
(PID.TID 0000.0001) %MON ad_dynstat_adwvel_mean       =   3.2971197621974E-04
(PID.TID 0000.0001) %MON ad_dynstat_adwvel_sd         =   3.1979815467492E-02
(PID.TID 0000.0001) %MON ad_dynstat_adwvel_del2       =   1.8738139856736E-03
(PID.TID 0000.0001) %MON ad_dynstat_adtheta_max       =   4.9260118469162E-03
(PID.TID 0000.0001) %MON ad_dynstat_adtheta_min       =  -5.0016184419214E-03
(PID.TID 0000.0001) %MON ad_dynstat_adtheta_mean      =   4.8097299647983E-07
(PID.TID 0000.0001) %MON ad_dynstat_adtheta_sd        =   1.9790166870070E-04
(PID.TID 0000.0001) %MON ad_dynstat_adtheta_del2      =   1.2925929224740E-05
(PID.TID 0000.0001) %MON ad_dynstat_adsalt_max        =   2.3007164514557E-02
(PID.TID 0000.0001) %MON ad_dynstat_adsalt_min        =  -2.1316993423530E-02
(PID.TID 0000.0001) %MON ad_dynstat_adsalt_mean       =  -2.4024766339021E-06
(PID.TID 0000.0001) %MON ad_dynstat_adsalt_sd         =   9.1375841855877E-04
(PID.TID 0000.0001) %MON ad_dynstat_adsalt_del2       =   5.8107290977038E-05
(PID.TID 0000.0001) %MON ad_dynstat_adsst_max         =   1.9378234276678E-04
(PID.TID 0000.0001) %MON ad_dynstat_adsst_min         =  -1.9266316335791E-04
(PID.TID 0000.0001) %MON ad_dynstat_adsst_mean        =  -3.1833163482173E-07
(PID.TID 0000.0001) %MON ad_dynstat_adsst_sd          =   9.8001098056933E-06
(PID.TID 0000.0001) %MON ad_dynstat_adsst_del2        =   8.1071231828692E-07
(PID.TID 0000.0001) %MON ad_dynstat_adsss_max         =   5.4131298661010E-04
(PID.TID 0000.0001) %MON ad_dynstat_adsss_min         =  -6.9391502904889E-04
(PID.TID 0000.0001) %MON ad_dynstat_adsss_mean        =   8.3579622736086E-08
(PID.TID 0000.0001) %MON ad_dynstat_adsss_sd          =   3.1723475702579E-05
(PID.TID 0000.0001) %MON ad_dynstat_adsss_del2        =   2.8876686798013E-06
(PID.TID 0000.0001) %MON ad_extforcing_adqnet_max     =   0.0000000000000E+00
(PID.TID 0000.0001) %MON ad_extforcing_adqnet_min     =   0.0000000000000E+00
(PID.TID 0000.0001) %MON ad_extforcing_adqnet_mean    =   0.0000000000000E+00
(PID.TID 0000.0001) %MON ad_extforcing_adqnet_sd      =   0.0000000000000E+00
(PID.TID 0000.0001) %MON ad_extforcing_adqnet_del2    =   0.0000000000000E+00
(PID.TID 0000.0001) %MON ad_extforcing_adempmr_max    =   1.0516899989816E+03
(PID.TID 0000.0001) %MON ad_extforcing_adempmr_min    =  -1.1473056430874E+03
(PID.TID 0000.0001) %MON ad_extforcing_adempmr_mean   =   8.3698855544680E-01
(PID.TID 0000.0001) %MON ad_extforcing_adempmr_sd     =   7.2841269338020E+01
(PID.TID 0000.0001) %MON ad_extforcing_adempmr_del2   =   6.6946222877497E+00
(PID.TID 0000.0001) %MON ad_extforcing_adfu_max       =   0.0000000000000E+00
(PID.TID 0000.0001) %MON ad_extforcing_adfu_min       =   0.0000000000000E+00
(PID.TID 0000.0001) %MON ad_extforcing_adfu_mean      =   0.0000000000000E+00
(PID.TID 0000.0001) %MON ad_extforcing_adfu_sd        =   0.0000000000000E+00
(PID.TID 0000.0001) %MON ad_extforcing_adfu_del2      =   0.0000000000000E+00
(PID.TID 0000.0001) %MON ad_extforcing_adfv_max       =   0.0000000000000E+00
(PID.TID 0000.0001) %MON ad_extforcing_adfv_min       =   0.0000000000000E+00
(PID.TID 0000.0001) %MON ad_extforcing_adfv_mean      =   0.0000000000000E+00
(PID.TID 0000.0001) %MON ad_extforcing_adfv_sd        =   0.0000000000000E+00
(PID.TID 0000.0001) %MON ad_extforcing_adfv_del2      =   0.0000000000000E+00
(PID.TID 0000.0001) %MON ad_advcfl_aduvel_max         =   8.9441991597403E-04
(PID.TID 0000.0001) %MON ad_advcfl_advvel_max         =   3.1412216846624E-03
(PID.TID 0000.0001) %MON ad_advcfl_adwvel_max         =   4.2845091541752E+02
(PID.TID 0000.0001) %MON ad_advcfl_adW_hf_max         =   6.0487188058943E+02
(PID.TID 0000.0001) // =======================================================
(PID.TID 0000.0001) // End MONITOR dynamic field statistics
(PID.TID 0000.0001) // =======================================================
 cg2d: Sum(rhs),rhsMax =   2.14948892018896E-12  4.26683050136893E-08
time,SST,SSS,fu,fv,Q,E-P,i0,i1,a,b =   2.2032E+06  4.3683E-01  3.4612E+01 -2.8214E-02 -4.3389E-02  2.5692E+02  0.0000E+00     1     2  3.5000E-01  6.5000E-01
time,fu0,fu1,fu =   2.2032E+06 -3.5633E-02 -1.4435E-02 -2.8214E-02  3.500000000000000E-01  6.500000000000000E-01
 cg2d: Sum(rhs),rhsMax =   9.77155856229928E-13  8.05674108674484E+00
time,SST,SSS,fu,fv,Q,E-P,i0,i1,a,b =   2.2464E+06  4.1199E-01  3.4607E+01 -2.7860E-02 -4.2729E-02  2.5650E+02  0.0000E+00     1     2  3.6667E-01  6.3333E-01
time,fu0,fu1,fu =   2.2464E+06 -3.5633E-02 -1.4435E-02 -2.7860E-02  3.666666666666666E-01  6.333333333333333E-01
 cg2d: Sum(rhs),rhsMax =   3.51094153749898E-13  8.18299903790893E+00
time,SST,SSS,fu,fv,Q,E-P,i0,i1,a,b =   2.2896E+06  3.8715E-01  3.4602E+01 -2.7507E-02 -4.2069E-02  2.5608E+02  0.0000E+00     1     2  3.8333E-01  6.1667E-01
time,fu0,fu1,fu =   2.2896E+06 -3.5633E-02 -1.4435E-02 -2.7507E-02  3.833333333333334E-01  6.166666666666667E-01
 cg2d: Sum(rhs),rhsMax =   2.67827426903011E-13  9.40876964847958E+00
(PID.TID 0000.0001) // =======================================================
(PID.TID 0000.0001) // Begin MONITOR dynamic field statistics
(PID.TID 0000.0001) // =======================================================
(PID.TID 0000.0001) %MON ad_time_tsnumber             =                    54
(PID.TID 0000.0001) %MON ad_time_secondsf             =   2.3328000000000E+06
(PID.TID 0000.0001) %MON ad_dynstat_adeta_max         =   3.0548972100319E-03
(PID.TID 0000.0001) %MON ad_dynstat_adeta_min         =  -5.2619839227738E-03
(PID.TID 0000.0001) %MON ad_dynstat_adeta_mean        =   6.4207260901921E-06
(PID.TID 0000.0001) %MON ad_dynstat_adeta_sd          =   3.1584589668557E-04
(PID.TID 0000.0001) %MON ad_dynstat_adeta_del2        =   2.8858255563069E-05
(PID.TID 0000.0001) %MON ad_dynstat_aduvel_max        =   5.2812533881040E-03
(PID.TID 0000.0001) %MON ad_dynstat_aduvel_min        =  -7.7747043138287E-03
(PID.TID 0000.0001) %MON ad_dynstat_aduvel_mean       =  -1.7551136567147E-05
(PID.TID 0000.0001) %MON ad_dynstat_aduvel_sd         =   4.7418579307351E-04
(PID.TID 0000.0001) %MON ad_dynstat_aduvel_del2       =   2.8253104889116E-05
(PID.TID 0000.0001) %MON ad_dynstat_advvel_max        =   2.8893133178578E-02
(PID.TID 0000.0001) %MON ad_dynstat_advvel_min        =  -3.3571453394991E-02
(PID.TID 0000.0001) %MON ad_dynstat_advvel_mean       =  -1.0301875438393E-05
(PID.TID 0000.0001) %MON ad_dynstat_advvel_sd         =   1.6832552336314E-03
(PID.TID 0000.0001) %MON ad_dynstat_advvel_del2       =   1.0474132234372E-04
(PID.TID 0000.0001) %MON ad_dynstat_adwvel_max        =   2.0575199953145E+00
(PID.TID 0000.0001) %MON ad_dynstat_adwvel_min        =  -1.1633661968648E+00
(PID.TID 0000.0001) %MON ad_dynstat_adwvel_mean       =   3.2994038302111E-04
(PID.TID 0000.0001) %MON ad_dynstat_adwvel_sd         =   3.1601541393576E-02
(PID.TID 0000.0001) %MON ad_dynstat_adwvel_del2       =   1.8593875999599E-03
(PID.TID 0000.0001) %MON ad_dynstat_adtheta_max       =   4.8787286504030E-03
(PID.TID 0000.0001) %MON ad_dynstat_adtheta_min       =  -4.9534506188701E-03
(PID.TID 0000.0001) %MON ad_dynstat_adtheta_mean      =   4.8243773223463E-07
(PID.TID 0000.0001) %MON ad_dynstat_adtheta_sd        =   1.9785041966665E-04
(PID.TID 0000.0001) %MON ad_dynstat_adtheta_del2      =   1.3021120428098E-05
(PID.TID 0000.0001) %MON ad_dynstat_adsalt_max        =   2.2976234236528E-02
(PID.TID 0000.0001) %MON ad_dynstat_adsalt_min        =  -2.1107043363088E-02
(PID.TID 0000.0001) %MON ad_dynstat_adsalt_mean       =  -2.3679325314301E-06
(PID.TID 0000.0001) %MON ad_dynstat_adsalt_sd         =   9.1448199010294E-04
(PID.TID 0000.0001) %MON ad_dynstat_adsalt_del2       =   5.8743229284779E-05
(PID.TID 0000.0001) %MON ad_dynstat_adsst_max         =   1.9146344718088E-04
(PID.TID 0000.0001) %MON ad_dynstat_adsst_min         =  -1.8960971988480E-04
(PID.TID 0000.0001) %MON ad_dynstat_adsst_mean        =  -2.8567324743902E-07
(PID.TID 0000.0001) %MON ad_dynstat_adsst_sd          =   9.6174512233811E-06
(PID.TID 0000.0001) %MON ad_dynstat_adsst_del2        =   7.8969862843549E-07
(PID.TID 0000.0001) %MON ad_dynstat_adsss_max         =   5.3397573571676E-04
(PID.TID 0000.0001) %MON ad_dynstat_adsss_min         =  -6.8859525705796E-04
(PID.TID 0000.0001) %MON ad_dynstat_adsss_mean        =   2.3476015747645E-08
(PID.TID 0000.0001) %MON ad_dynstat_adsss_sd          =   3.1209900477220E-05
(PID.TID 0000.0001) %MON ad_dynstat_adsss_del2        =   2.8367824734897E-06
(PID.TID 0000.0001) %MON ad_extforcing_adqnet_max     =   0.0000000000000E+00
(PID.TID 0000.0001) %MON ad_extforcing_adqnet_min     =   0.0000000000000E+00
(PID.TID 0000.0001) %MON ad_extforcing_adqnet_mean    =   0.0000000000000E+00
(PID.TID 0000.0001) %MON ad_extforcing_adqnet_sd      =   0.0000000000000E+00
(PID.TID 0000.0001) %MON ad_extforcing_adqnet_del2    =   0.0000000000000E+00
(PID.TID 0000.0001) %MON ad_extforcing_adempmr_max    =   1.0752975543407E+03
(PID.TID 0000.0001) %MON ad_extforcing_adempmr_min    =  -1.1733029980529E+03
(PID.TID 0000.0001) %MON ad_extforcing_adempmr_mean   =   8.2893781839978E-01
(PID.TID 0000.0001) %MON ad_extforcing_adempmr_sd     =   7.3869826813509E+01
(PID.TID 0000.0001) %MON ad_extforcing_adempmr_del2   =   6.7857820408100E+00
(PID.TID 0000.0001) %MON ad_extforcing_adfu_max       =   0.0000000000000E+00
(PID.TID 0000.0001) %MON ad_extforcing_adfu_min       =   0.0000000000000E+00
(PID.TID 0000.0001) %MON ad_extforcing_adfu_mean      =   0.0000000000000E+00
(PID.TID 0000.0001) %MON ad_extforcing_adfu_sd        =   0.0000000000000E+00
(PID.TID 0000.0001) %MON ad_extforcing_adfu_del2      =   0.0000000000000E+00
(PID.TID 0000.0001) %MON ad_extforcing_adfv_max       =   0.0000000000000E+00
(PID.TID 0000.0001) %MON ad_extforcing_adfv_min       =   0.0000000000000E+00
(PID.TID 0000.0001) %MON ad_extforcing_adfv_mean      =   0.0000000000000E+00
(PID.TID 0000.0001) %MON ad_extforcing_adfv_sd        =   0.0000000000000E+00
(PID.TID 0000.0001) %MON ad_extforcing_adfv_del2      =   0.0000000000000E+00
(PID.TID 0000.0001) %MON ad_advcfl_aduvel_max         =   8.7208778767349E-04
(PID.TID 0000.0001) %MON ad_advcfl_advvel_max         =   3.2611974866333E-03
(PID.TID 0000.0001) %MON ad_advcfl_adwvel_max         =   4.2425671395231E+02
(PID.TID 0000.0001) %MON ad_advcfl_adW_hf_max         =   5.9895065499149E+02
(PID.TID 0000.0001) // =======================================================
(PID.TID 0000.0001) // End MONITOR dynamic field statistics
(PID.TID 0000.0001) // =======================================================
 cg2d: Sum(rhs),rhsMax =   2.33976379937495E-12  4.30072489290462E-08
(PID.TID 0000.0001) // =======================================================
(PID.TID 0000.0001) // Begin MONITOR dynamic field statistics
(PID.TID 0000.0001) // =======================================================
(PID.TID 0000.0001) %MON ad_time_tsnumber             =                    53
(PID.TID 0000.0001) %MON ad_time_secondsf             =   2.2896000000000E+06
(PID.TID 0000.0001) %MON ad_dynstat_adeta_max         =   2.9200586204370E-03
(PID.TID 0000.0001) %MON ad_dynstat_adeta_min         =  -5.1912235551199E-03
(PID.TID 0000.0001) %MON ad_dynstat_adeta_mean        =   5.8471186408043E-06
(PID.TID 0000.0001) %MON ad_dynstat_adeta_sd          =   3.0979160713972E-04
(PID.TID 0000.0001) %MON ad_dynstat_adeta_del2        =   2.8952563771041E-05
(PID.TID 0000.0001) %MON ad_dynstat_aduvel_max        =   5.3172206471316E-03
(PID.TID 0000.0001) %MON ad_dynstat_aduvel_min        =  -7.5467868756463E-03
(PID.TID 0000.0001) %MON ad_dynstat_aduvel_mean       =  -1.0659384471733E-05
(PID.TID 0000.0001) %MON ad_dynstat_aduvel_sd         =   4.7637636233483E-04
(PID.TID 0000.0001) %MON ad_dynstat_aduvel_del2       =   2.8716685448946E-05
(PID.TID 0000.0001) %MON ad_dynstat_advvel_max        =   2.8693855915081E-02
(PID.TID 0000.0001) %MON ad_dynstat_advvel_min        =  -3.4550642532218E-02
(PID.TID 0000.0001) %MON ad_dynstat_advvel_mean       =  -1.4373347405725E-05
(PID.TID 0000.0001) %MON ad_dynstat_advvel_sd         =   1.7084958857252E-03
(PID.TID 0000.0001) %MON ad_dynstat_advvel_del2       =   1.0569895690966E-04
(PID.TID 0000.0001) %MON ad_dynstat_adwvel_max        =   2.0357418918165E+00
(PID.TID 0000.0001) %MON ad_dynstat_adwvel_min        =  -1.1500768650652E+00
(PID.TID 0000.0001) %MON ad_dynstat_adwvel_mean       =   3.2925561488633E-04
(PID.TID 0000.0001) %MON ad_dynstat_adwvel_sd         =   3.1166655766487E-02
(PID.TID 0000.0001) %MON ad_dynstat_adwvel_del2       =   1.8349988829707E-03
(PID.TID 0000.0001) %MON ad_dynstat_adtheta_max       =   4.8253380090660E-03
(PID.TID 0000.0001) %MON ad_dynstat_adtheta_min       =  -4.9000002100442E-03
(PID.TID 0000.0001) %MON ad_dynstat_adtheta_mean      =   4.8487380814209E-07
(PID.TID 0000.0001) %MON ad_dynstat_adtheta_sd        =   1.9730471358250E-04
(PID.TID 0000.0001) %MON ad_dynstat_adtheta_del2      =   1.3029822300120E-05
(PID.TID 0000.0001) %MON ad_dynstat_adsalt_max        =   2.2867032903123E-02
(PID.TID 0000.0001) %MON ad_dynstat_adsalt_min        =  -2.0870692856093E-02
(PID.TID 0000.0001) %MON ad_dynstat_adsalt_mean       =  -2.3362976382515E-06
(PID.TID 0000.0001) %MON ad_dynstat_adsalt_sd         =   9.1282687496224E-04
(PID.TID 0000.0001) %MON ad_dynstat_adsalt_del2       =   5.9001472542324E-05
(PID.TID 0000.0001) %MON ad_dynstat_adsst_max         =   1.8897686278555E-04
(PID.TID 0000.0001) %MON ad_dynstat_adsst_min         =  -1.8578442347003E-04
(PID.TID 0000.0001) %MON ad_dynstat_adsst_mean        =  -2.5174900596804E-07
(PID.TID 0000.0001) %MON ad_dynstat_adsst_sd          =   9.4259364702075E-06
(PID.TID 0000.0001) %MON ad_dynstat_adsst_del2        =   7.7205673768514E-07
(PID.TID 0000.0001) %MON ad_dynstat_adsss_max         =   5.2446284784201E-04
(PID.TID 0000.0001) %MON ad_dynstat_adsss_min         =  -6.8275607502515E-04
(PID.TID 0000.0001) %MON ad_dynstat_adsss_mean        =  -3.8811381204618E-08
(PID.TID 0000.0001) %MON ad_dynstat_adsss_sd          =   3.0665944452558E-05
(PID.TID 0000.0001) %MON ad_dynstat_adsss_del2        =   2.7961516052982E-06
(PID.TID 0000.0001) %MON ad_extforcing_adqnet_max     =   0.0000000000000E+00
(PID.TID 0000.0001) %MON ad_extforcing_adqnet_min     =   0.0000000000000E+00
(PID.TID 0000.0001) %MON ad_extforcing_adqnet_mean    =   0.0000000000000E+00
(PID.TID 0000.0001) %MON ad_extforcing_adqnet_sd      =   0.0000000000000E+00
(PID.TID 0000.0001) %MON ad_extforcing_adqnet_del2    =   0.0000000000000E+00
(PID.TID 0000.0001) %MON ad_extforcing_adempmr_max    =   1.0985711900365E+03
(PID.TID 0000.0001) %MON ad_extforcing_adempmr_min    =  -1.1990365234566E+03
(PID.TID 0000.0001) %MON ad_extforcing_adempmr_mean   =   8.1969736148510E-01
(PID.TID 0000.0001) %MON ad_extforcing_adempmr_sd     =   7.4868079445312E+01
(PID.TID 0000.0001) %MON ad_extforcing_adempmr_del2   =   6.8742385242641E+00
(PID.TID 0000.0001) %MON ad_extforcing_adfu_max       =   0.0000000000000E+00
(PID.TID 0000.0001) %MON ad_extforcing_adfu_min       =   0.0000000000000E+00
(PID.TID 0000.0001) %MON ad_extforcing_adfu_mean      =   0.0000000000000E+00
(PID.TID 0000.0001) %MON ad_extforcing_adfu_sd        =   0.0000000000000E+00
(PID.TID 0000.0001) %MON ad_extforcing_adfu_del2      =   0.0000000000000E+00
(PID.TID 0000.0001) %MON ad_extforcing_adfv_max       =   0.0000000000000E+00
(PID.TID 0000.0001) %MON ad_extforcing_adfv_min       =   0.0000000000000E+00
(PID.TID 0000.0001) %MON ad_extforcing_adfv_mean      =   0.0000000000000E+00
(PID.TID 0000.0001) %MON ad_extforcing_adfv_sd        =   0.0000000000000E+00
(PID.TID 0000.0001) %MON ad_extforcing_adfv_del2      =   0.0000000000000E+00
(PID.TID 0000.0001) %MON ad_advcfl_aduvel_max         =   8.4652231194432E-04
(PID.TID 0000.0001) %MON ad_advcfl_advvel_max         =   3.3563178591619E-03
(PID.TID 0000.0001) %MON ad_advcfl_adwvel_max         =   4.1909698599986E+02
(PID.TID 0000.0001) %MON ad_advcfl_adW_hf_max         =   5.9166633317627E+02
(PID.TID 0000.0001) // =======================================================
(PID.TID 0000.0001) // End MONITOR dynamic field statistics
(PID.TID 0000.0001) // =======================================================
 cg2d: Sum(rhs),rhsMax =   2.44959261208599E-12  4.33535426275201E-08
(PID.TID 0000.0001) // =======================================================
(PID.TID 0000.0001) // Begin MONITOR dynamic field statistics
(PID.TID 0000.0001) // =======================================================
(PID.TID 0000.0001) %MON ad_time_tsnumber             =                    52
(PID.TID 0000.0001) %MON ad_time_secondsf             =   2.2464000000000E+06
(PID.TID 0000.0001) %MON ad_dynstat_adeta_max         =   2.7782066233618E-03
(PID.TID 0000.0001) %MON ad_dynstat_adeta_min         =  -5.1230333918184E-03
(PID.TID 0000.0001) %MON ad_dynstat_adeta_mean        =   5.2425509304554E-06
(PID.TID 0000.0001) %MON ad_dynstat_adeta_sd          =   3.0412619605640E-04
(PID.TID 0000.0001) %MON ad_dynstat_adeta_del2        =   2.8823848071782E-05
(PID.TID 0000.0001) %MON ad_dynstat_aduvel_max        =   5.3377195811068E-03
(PID.TID 0000.0001) %MON ad_dynstat_aduvel_min        =  -7.7917398945224E-03
(PID.TID 0000.0001) %MON ad_dynstat_aduvel_mean       =  -3.9820867549949E-06
(PID.TID 0000.0001) %MON ad_dynstat_aduvel_sd         =   4.7930936253250E-04
(PID.TID 0000.0001) %MON ad_dynstat_aduvel_del2       =   2.9301387009018E-05
(PID.TID 0000.0001) %MON ad_dynstat_advvel_max        =   2.8318119679626E-02
(PID.TID 0000.0001) %MON ad_dynstat_advvel_min        =  -3.5263443462462E-02
(PID.TID 0000.0001) %MON ad_dynstat_advvel_mean       =  -1.7651276094697E-05
(PID.TID 0000.0001) %MON ad_dynstat_advvel_sd         =   1.7265210782023E-03
(PID.TID 0000.0001) %MON ad_dynstat_advvel_del2       =   1.0746072305771E-04
(PID.TID 0000.0001) %MON ad_dynstat_adwvel_max        =   2.0125167329125E+00
(PID.TID 0000.0001) %MON ad_dynstat_adwvel_min        =  -1.1355121231196E+00
(PID.TID 0000.0001) %MON ad_dynstat_adwvel_mean       =   3.2773701375602E-04
(PID.TID 0000.0001) %MON ad_dynstat_adwvel_sd         =   3.0683086092918E-02
(PID.TID 0000.0001) %MON ad_dynstat_adwvel_del2       =   1.7988862360945E-03
(PID.TID 0000.0001) %MON ad_dynstat_adtheta_max       =   4.7665973088514E-03
(PID.TID 0000.0001) %MON ad_dynstat_adtheta_min       =  -4.8435977830039E-03
(PID.TID 0000.0001) %MON ad_dynstat_adtheta_mean      =   4.8804035312001E-07
(PID.TID 0000.0001) %MON ad_dynstat_adtheta_sd        =   1.9626728970736E-04
(PID.TID 0000.0001) %MON ad_dynstat_adtheta_del2      =   1.2946044119258E-05
(PID.TID 0000.0001) %MON ad_dynstat_adsalt_max        =   2.2686281912347E-02
(PID.TID 0000.0001) %MON ad_dynstat_adsalt_min        =  -2.0611215737347E-02
(PID.TID 0000.0001) %MON ad_dynstat_adsalt_mean       =  -2.3070369855615E-06
(PID.TID 0000.0001) %MON ad_dynstat_adsalt_sd         =   9.0878896906673E-04
(PID.TID 0000.0001) %MON ad_dynstat_adsalt_del2       =   5.8827897458309E-05
(PID.TID 0000.0001) %MON ad_dynstat_adsst_max         =   1.8635611834578E-04
(PID.TID 0000.0001) %MON ad_dynstat_adsst_min         =  -1.8203589969019E-04
(PID.TID 0000.0001) %MON ad_dynstat_adsst_mean        =  -2.1674585893071E-07
(PID.TID 0000.0001) %MON ad_dynstat_adsst_sd          =   9.2316458729202E-06
(PID.TID 0000.0001) %MON ad_dynstat_adsst_del2        =   7.5619411783421E-07
(PID.TID 0000.0001) %MON ad_dynstat_adsss_max         =   5.1514871881504E-04
(PID.TID 0000.0001) %MON ad_dynstat_adsss_min         =  -6.7647907391447E-04
(PID.TID 0000.0001) %MON ad_dynstat_adsss_mean        =  -1.0226661357970E-07
(PID.TID 0000.0001) %MON ad_dynstat_adsss_sd          =   3.0109133400572E-05
(PID.TID 0000.0001) %MON ad_dynstat_adsss_del2        =   2.7589614048336E-06
(PID.TID 0000.0001) %MON ad_extforcing_adqnet_max     =   0.0000000000000E+00
(PID.TID 0000.0001) %MON ad_extforcing_adqnet_min     =   0.0000000000000E+00
(PID.TID 0000.0001) %MON ad_extforcing_adqnet_mean    =   0.0000000000000E+00
(PID.TID 0000.0001) %MON ad_extforcing_adqnet_sd      =   0.0000000000000E+00
(PID.TID 0000.0001) %MON ad_extforcing_adqnet_del2    =   0.0000000000000E+00
(PID.TID 0000.0001) %MON ad_extforcing_adempmr_max    =   1.1215017919757E+03
(PID.TID 0000.0001) %MON ad_extforcing_adempmr_min    =  -1.2244970300522E+03
(PID.TID 0000.0001) %MON ad_extforcing_adempmr_mean   =   8.0935282462329E-01
(PID.TID 0000.0001) %MON ad_extforcing_adempmr_sd     =   7.5835056780905E+01
(PID.TID 0000.0001) %MON ad_extforcing_adempmr_del2   =   6.9596386531101E+00
(PID.TID 0000.0001) %MON ad_extforcing_adfu_max       =   0.0000000000000E+00
(PID.TID 0000.0001) %MON ad_extforcing_adfu_min       =   0.0000000000000E+00
(PID.TID 0000.0001) %MON ad_extforcing_adfu_mean      =   0.0000000000000E+00
(PID.TID 0000.0001) %MON ad_extforcing_adfu_sd        =   0.0000000000000E+00
(PID.TID 0000.0001) %MON ad_extforcing_adfu_del2      =   0.0000000000000E+00
(PID.TID 0000.0001) %MON ad_extforcing_adfv_max       =   0.0000000000000E+00
(PID.TID 0000.0001) %MON ad_extforcing_adfv_min       =   0.0000000000000E+00
(PID.TID 0000.0001) %MON ad_extforcing_adfv_mean      =   0.0000000000000E+00
(PID.TID 0000.0001) %MON ad_extforcing_adfv_sd        =   0.0000000000000E+00
(PID.TID 0000.0001) %MON ad_extforcing_adfv_del2      =   0.0000000000000E+00
(PID.TID 0000.0001) %MON ad_advcfl_aduvel_max         =   8.1933477639234E-04
(PID.TID 0000.0001) %MON ad_advcfl_advvel_max         =   3.4255607535589E-03
(PID.TID 0000.0001) %MON ad_advcfl_adwvel_max         =   4.1360542288487E+02
(PID.TID 0000.0001) %MON ad_advcfl_adW_hf_max         =   5.8391353819041E+02
(PID.TID 0000.0001) // =======================================================
(PID.TID 0000.0001) // End MONITOR dynamic field statistics
(PID.TID 0000.0001) // =======================================================
 cg2d: Sum(rhs),rhsMax =   2.69950034548216E-12  4.33232461774372E-08
time,SST,SSS,fu,fv,Q,E-P,i0,i1,a,b =   2.0736E+06  5.1134E-01  3.4627E+01 -2.9273E-02 -4.5370E-02  2.5818E+02  0.0000E+00     1     2  3.0000E-01  7.0000E-01
time,fu0,fu1,fu =   2.0736E+06 -3.5633E-02 -1.4435E-02 -2.9273E-02  3.000000000000000E-01  7.000000000000000E-01
 cg2d: Sum(rhs),rhsMax =  -1.24379673227537E-13  8.05769528537582E+00
time,SST,SSS,fu,fv,Q,E-P,i0,i1,a,b =   2.1168E+06  4.8650E-01  3.4622E+01 -2.8920E-02 -4.4710E-02  2.5776E+02  0.0000E+00     1     2  3.1667E-01  6.8333E-01
time,fu0,fu1,fu =   2.1168E+06 -3.5633E-02 -1.4435E-02 -2.8920E-02  3.166666666666667E-01  6.833333333333333E-01
 cg2d: Sum(rhs),rhsMax =   2.08708050841722E-13  8.09041694797477E+00
time,SST,SSS,fu,fv,Q,E-P,i0,i1,a,b =   2.1600E+06  4.6166E-01  3.4617E+01 -2.8567E-02 -4.4050E-02  2.5734E+02  0.0000E+00     1     2  3.3333E-01  6.6667E-01
time,fu0,fu1,fu =   2.1600E+06 -3.5633E-02 -1.4435E-02 -2.8567E-02  3.333333333333333E-01  6.666666666666667E-01
 cg2d: Sum(rhs),rhsMax =  -7.66192664869436E-14  8.08616437912501E+00
(PID.TID 0000.0001) // =======================================================
(PID.TID 0000.0001) // Begin MONITOR dynamic field statistics
(PID.TID 0000.0001) // =======================================================
(PID.TID 0000.0001) %MON ad_time_tsnumber             =                    51
(PID.TID 0000.0001) %MON ad_time_secondsf             =   2.2032000000000E+06
(PID.TID 0000.0001) %MON ad_dynstat_adeta_max         =   2.6274710132723E-03
(PID.TID 0000.0001) %MON ad_dynstat_adeta_min         =  -5.0177431620525E-03
(PID.TID 0000.0001) %MON ad_dynstat_adeta_mean        =   4.6172492403950E-06
(PID.TID 0000.0001) %MON ad_dynstat_adeta_sd          =   2.9890546720553E-04
(PID.TID 0000.0001) %MON ad_dynstat_adeta_del2        =   2.8504448001024E-05
(PID.TID 0000.0001) %MON ad_dynstat_aduvel_max        =   5.3469754402795E-03
(PID.TID 0000.0001) %MON ad_dynstat_aduvel_min        =  -8.2105559122177E-03
(PID.TID 0000.0001) %MON ad_dynstat_aduvel_mean       =   2.5077475071670E-06
(PID.TID 0000.0001) %MON ad_dynstat_aduvel_sd         =   4.8277992593050E-04
(PID.TID 0000.0001) %MON ad_dynstat_aduvel_del2       =   2.9959227179685E-05
(PID.TID 0000.0001) %MON ad_dynstat_advvel_max        =   2.7772834706534E-02
(PID.TID 0000.0001) %MON ad_dynstat_advvel_min        =  -3.5703332552010E-02
(PID.TID 0000.0001) %MON ad_dynstat_advvel_mean       =  -2.0242193890318E-05
(PID.TID 0000.0001) %MON ad_dynstat_advvel_sd         =   1.7364520924669E-03
(PID.TID 0000.0001) %MON ad_dynstat_advvel_del2       =   1.0952001348161E-04
(PID.TID 0000.0001) %MON ad_dynstat_adwvel_max        =   1.9886820589581E+00
(PID.TID 0000.0001) %MON ad_dynstat_adwvel_min        =  -1.1197653773051E+00
(PID.TID 0000.0001) %MON ad_dynstat_adwvel_mean       =   3.2552013971062E-04
(PID.TID 0000.0001) %MON ad_dynstat_adwvel_sd         =   3.0160609928271E-02
(PID.TID 0000.0001) %MON ad_dynstat_adwvel_del2       =   1.7519035221370E-03
(PID.TID 0000.0001) %MON ad_dynstat_adtheta_max       =   4.7030483640986E-03
(PID.TID 0000.0001) %MON ad_dynstat_adtheta_min       =  -4.7855014844428E-03
(PID.TID 0000.0001) %MON ad_dynstat_adtheta_mean      =   4.9174660161474E-07
(PID.TID 0000.0001) %MON ad_dynstat_adtheta_sd        =   1.9476205843255E-04
(PID.TID 0000.0001) %MON ad_dynstat_adtheta_del2      =   1.2773548831088E-05
(PID.TID 0000.0001) %MON ad_dynstat_adsalt_max        =   2.2441063689746E-02
(PID.TID 0000.0001) %MON ad_dynstat_adsalt_min        =  -2.0330948603334E-02
(PID.TID 0000.0001) %MON ad_dynstat_adsalt_mean       =  -2.2797793610156E-06
(PID.TID 0000.0001) %MON ad_dynstat_adsalt_sd         =   9.0246978535296E-04
(PID.TID 0000.0001) %MON ad_dynstat_adsalt_del2       =   5.8246451666271E-05
(PID.TID 0000.0001) %MON ad_dynstat_adsst_max         =   1.8354260610203E-04
(PID.TID 0000.0001) %MON ad_dynstat_adsst_min         =  -1.7874877242747E-04
(PID.TID 0000.0001) %MON ad_dynstat_adsst_mean        =  -1.8088715911499E-07
(PID.TID 0000.0001) %MON ad_dynstat_adsst_sd          =   9.0376802907438E-06
(PID.TID 0000.0001) %MON ad_dynstat_adsst_del2        =   7.3967218684732E-07
(PID.TID 0000.0001) %MON ad_dynstat_adsss_max         =   5.0710977824643E-04
(PID.TID 0000.0001) %MON ad_dynstat_adsss_min         =  -6.6957237883521E-04
(PID.TID 0000.0001) %MON ad_dynstat_adsss_mean        =  -1.6754394319067E-07
(PID.TID 0000.0001) %MON ad_dynstat_adsss_sd          =   2.9549322814471E-05
(PID.TID 0000.0001) %MON ad_dynstat_adsss_del2        =   2.7138426535755E-06
(PID.TID 0000.0001) %MON ad_extforcing_adqnet_max     =   0.0000000000000E+00
(PID.TID 0000.0001) %MON ad_extforcing_adqnet_min     =   0.0000000000000E+00
(PID.TID 0000.0001) %MON ad_extforcing_adqnet_mean    =   0.0000000000000E+00
(PID.TID 0000.0001) %MON ad_extforcing_adqnet_sd      =   0.0000000000000E+00
(PID.TID 0000.0001) %MON ad_extforcing_adqnet_del2    =   0.0000000000000E+00
(PID.TID 0000.0001) %MON ad_extforcing_adempmr_max    =   1.1440936515305E+03
(PID.TID 0000.0001) %MON ad_extforcing_adempmr_min    =  -1.2496627600408E+03
(PID.TID 0000.0001) %MON ad_extforcing_adempmr_mean   =   7.9788319429975E-01
(PID.TID 0000.0001) %MON ad_extforcing_adempmr_sd     =   7.6769237274778E+01
(PID.TID 0000.0001) %MON ad_extforcing_adempmr_del2   =   7.0416085046642E+00
(PID.TID 0000.0001) %MON ad_extforcing_adfu_max       =   0.0000000000000E+00
(PID.TID 0000.0001) %MON ad_extforcing_adfu_min       =   0.0000000000000E+00
(PID.TID 0000.0001) %MON ad_extforcing_adfu_mean      =   0.0000000000000E+00
(PID.TID 0000.0001) %MON ad_extforcing_adfu_sd        =   0.0000000000000E+00
(PID.TID 0000.0001) %MON ad_extforcing_adfu_del2      =   0.0000000000000E+00
(PID.TID 0000.0001) %MON ad_extforcing_adfv_max       =   0.0000000000000E+00
(PID.TID 0000.0001) %MON ad_extforcing_adfv_min       =   0.0000000000000E+00
(PID.TID 0000.0001) %MON ad_extforcing_adfv_mean      =   0.0000000000000E+00
(PID.TID 0000.0001) %MON ad_extforcing_adfv_sd        =   0.0000000000000E+00
(PID.TID 0000.0001) %MON ad_extforcing_adfv_del2      =   0.0000000000000E+00
(PID.TID 0000.0001) %MON ad_advcfl_aduvel_max         =   8.6022816532105E-04
(PID.TID 0000.0001) %MON ad_advcfl_advvel_max         =   3.4682924511221E-03
(PID.TID 0000.0001) %MON ad_advcfl_adwvel_max         =   4.0814328254505E+02
(PID.TID 0000.0001) %MON ad_advcfl_adW_hf_max         =   5.7620228124007E+02
(PID.TID 0000.0001) // =======================================================
(PID.TID 0000.0001) // End MONITOR dynamic field statistics
(PID.TID 0000.0001) // =======================================================
 cg2d: Sum(rhs),rhsMax =   2.87722970448989E-12  4.28023348607944E-08
 myIter=  50
 ph-mnc in addummy param  T
 ph-mnc in addummy myiter  50
(PID.TID 0000.0001) // =======================================================
(PID.TID 0000.0001) // Begin MONITOR dynamic field statistics
(PID.TID 0000.0001) // =======================================================
(PID.TID 0000.0001) %MON ad_time_tsnumber             =                    50
(PID.TID 0000.0001) %MON ad_time_secondsf             =   2.1600000000000E+06
(PID.TID 0000.0001) %MON ad_dynstat_adeta_max         =   2.4702041641361E-03
(PID.TID 0000.0001) %MON ad_dynstat_adeta_min         =  -4.8624044334218E-03
(PID.TID 0000.0001) %MON ad_dynstat_adeta_mean        =   3.9697676287817E-06
(PID.TID 0000.0001) %MON ad_dynstat_adeta_sd          =   2.9416764052984E-04
(PID.TID 0000.0001) %MON ad_dynstat_adeta_del2        =   2.7962025280655E-05
(PID.TID 0000.0001) %MON ad_dynstat_aduvel_max        =   5.3450916244249E-03
(PID.TID 0000.0001) %MON ad_dynstat_aduvel_min        =  -8.5723682048297E-03
(PID.TID 0000.0001) %MON ad_dynstat_aduvel_mean       =   4.0112882702184E-06
(PID.TID 0000.0001) %MON ad_dynstat_aduvel_sd         =   4.8858088959632E-04
(PID.TID 0000.0001) %MON ad_dynstat_aduvel_del2       =   2.8945650773997E-05
(PID.TID 0000.0001) %MON ad_dynstat_advvel_max        =   2.7067330474240E-02
(PID.TID 0000.0001) %MON ad_dynstat_advvel_min        =  -3.5868013164390E-02
(PID.TID 0000.0001) %MON ad_dynstat_advvel_mean       =  -2.2223621690446E-05
(PID.TID 0000.0001) %MON ad_dynstat_advvel_sd         =   1.7382617517218E-03
(PID.TID 0000.0001) %MON ad_dynstat_advvel_del2       =   1.1163405684310E-04
(PID.TID 0000.0001) %MON ad_dynstat_adwvel_max        =   1.9644912145169E+00
(PID.TID 0000.0001) %MON ad_dynstat_adwvel_min        =  -1.1029315226120E+00
(PID.TID 0000.0001) %MON ad_dynstat_adwvel_mean       =   3.2271578363088E-04
(PID.TID 0000.0001) %MON ad_dynstat_adwvel_sd         =   2.9612906051378E-02
(PID.TID 0000.0001) %MON ad_dynstat_adwvel_del2       =   1.6925526907469E-03
(PID.TID 0000.0001) %MON ad_dynstat_adtheta_max       =   4.6352598486673E-03
(PID.TID 0000.0001) %MON ad_dynstat_adtheta_min       =  -4.7260459605764E-03
(PID.TID 0000.0001) %MON ad_dynstat_adtheta_mean      =   4.4684821159643E-07
(PID.TID 0000.0001) %MON ad_dynstat_adtheta_sd        =   1.9283728357048E-04
(PID.TID 0000.0001) %MON ad_dynstat_adtheta_del2      =   1.2501351214993E-05
(PID.TID 0000.0001) %MON ad_dynstat_adsalt_max        =   2.2138081813732E-02
(PID.TID 0000.0001) %MON ad_dynstat_adsalt_min        =  -2.0032344797704E-02
(PID.TID 0000.0001) %MON ad_dynstat_adsalt_mean       =  -1.9964449613769E-06
(PID.TID 0000.0001) %MON ad_dynstat_adsalt_sd         =   8.9409048459836E-04
(PID.TID 0000.0001) %MON ad_dynstat_adsalt_del2       =   5.7145382552752E-05
(PID.TID 0000.0001) %MON ad_dynstat_adsst_max         =   1.8048181938768E-04
(PID.TID 0000.0001) %MON ad_dynstat_adsst_min         =  -1.7592167076954E-04
(PID.TID 0000.0001) %MON ad_dynstat_adsst_mean        =  -1.6273609100119E-07
(PID.TID 0000.0001) %MON ad_dynstat_adsst_sd          =   8.8499932528236E-06
(PID.TID 0000.0001) %MON ad_dynstat_adsst_del2        =   7.0847388352556E-07
(PID.TID 0000.0001) %MON ad_dynstat_adsss_max         =   5.0034285085466E-04
(PID.TID 0000.0001) %MON ad_dynstat_adsss_min         =  -6.6185657986081E-04
(PID.TID 0000.0001) %MON ad_dynstat_adsss_mean        =  -1.7906553170104E-07
(PID.TID 0000.0001) %MON ad_dynstat_adsss_sd          =   2.9004008263597E-05
(PID.TID 0000.0001) %MON ad_dynstat_adsss_del2        =   2.5861989033911E-06
(PID.TID 0000.0001) %MON ad_extforcing_adqnet_max     =   0.0000000000000E+00
(PID.TID 0000.0001) %MON ad_extforcing_adqnet_min     =   0.0000000000000E+00
(PID.TID 0000.0001) %MON ad_extforcing_adqnet_mean    =   0.0000000000000E+00
(PID.TID 0000.0001) %MON ad_extforcing_adqnet_sd      =   0.0000000000000E+00
(PID.TID 0000.0001) %MON ad_extforcing_adqnet_del2    =   0.0000000000000E+00
(PID.TID 0000.0001) %MON ad_extforcing_adempmr_max    =   1.1663471351762E+03
(PID.TID 0000.0001) %MON ad_extforcing_adempmr_min    =  -1.2745034405985E+03
(PID.TID 0000.0001) %MON ad_extforcing_adempmr_mean   =   7.8527103730261E-01
(PID.TID 0000.0001) %MON ad_extforcing_adempmr_sd     =   7.7669060216859E+01
(PID.TID 0000.0001) %MON ad_extforcing_adempmr_del2   =   7.1196692622706E+00
(PID.TID 0000.0001) %MON ad_extforcing_adfu_max       =   0.0000000000000E+00
(PID.TID 0000.0001) %MON ad_extforcing_adfu_min       =   0.0000000000000E+00
(PID.TID 0000.0001) %MON ad_extforcing_adfu_mean      =   0.0000000000000E+00
(PID.TID 0000.0001) %MON ad_extforcing_adfu_sd        =   0.0000000000000E+00
(PID.TID 0000.0001) %MON ad_extforcing_adfu_del2      =   0.0000000000000E+00
(PID.TID 0000.0001) %MON ad_extforcing_adfv_max       =   0.0000000000000E+00
(PID.TID 0000.0001) %MON ad_extforcing_adfv_min       =   0.0000000000000E+00
(PID.TID 0000.0001) %MON ad_extforcing_adfv_mean      =   0.0000000000000E+00
(PID.TID 0000.0001) %MON ad_extforcing_adfv_sd        =   0.0000000000000E+00
(PID.TID 0000.0001) %MON ad_extforcing_adfv_del2      =   0.0000000000000E+00
(PID.TID 0000.0001) %MON ad_advcfl_aduvel_max         =   9.1935651131803E-04
(PID.TID 0000.0001) %MON ad_advcfl_advvel_max         =   3.4842898520351E-03
(PID.TID 0000.0001) %MON ad_advcfl_adwvel_max         =   4.0280076719768E+02
(PID.TID 0000.0001) %MON ad_advcfl_adW_hf_max         =   5.6865990663203E+02
(PID.TID 0000.0001) // =======================================================
(PID.TID 0000.0001) // End MONITOR dynamic field statistics
(PID.TID 0000.0001) // =======================================================
 cg2d: Sum(rhs),rhsMax =   3.08698552831110E-12  4.18753311453405E-08
(PID.TID 0000.0001) // =======================================================
(PID.TID 0000.0001) // Begin MONITOR dynamic field statistics
(PID.TID 0000.0001) // =======================================================
(PID.TID 0000.0001) %MON ad_time_tsnumber             =                    49
(PID.TID 0000.0001) %MON ad_time_secondsf             =   2.1168000000000E+06
(PID.TID 0000.0001) %MON ad_dynstat_adeta_max         =   2.3092862620196E-03
(PID.TID 0000.0001) %MON ad_dynstat_adeta_min         =  -4.6644460318387E-03
(PID.TID 0000.0001) %MON ad_dynstat_adeta_mean        =   3.3425961495393E-06
(PID.TID 0000.0001) %MON ad_dynstat_adeta_sd          =   2.9006599471881E-04
(PID.TID 0000.0001) %MON ad_dynstat_adeta_del2        =   2.7540832416758E-05
(PID.TID 0000.0001) %MON ad_dynstat_aduvel_max        =   5.3297125986345E-03
(PID.TID 0000.0001) %MON ad_dynstat_aduvel_min        =  -8.8799419275351E-03
(PID.TID 0000.0001) %MON ad_dynstat_aduvel_mean       =   1.5071204108927E-05
(PID.TID 0000.0001) %MON ad_dynstat_aduvel_sd         =   4.9287800256244E-04
(PID.TID 0000.0001) %MON ad_dynstat_aduvel_del2       =   3.1417284882568E-05
(PID.TID 0000.0001) %MON ad_dynstat_advvel_max        =   2.6214996055035E-02
(PID.TID 0000.0001) %MON ad_dynstat_advvel_min        =  -3.5757985765741E-02
(PID.TID 0000.0001) %MON ad_dynstat_advvel_mean       =  -2.3800025556833E-05
(PID.TID 0000.0001) %MON ad_dynstat_advvel_sd         =   1.7322748190443E-03
(PID.TID 0000.0001) %MON ad_dynstat_advvel_del2       =   1.1345331826905E-04
(PID.TID 0000.0001) %MON ad_dynstat_adwvel_max        =   1.9398253100955E+00
(PID.TID 0000.0001) %MON ad_dynstat_adwvel_min        =  -1.0851479073443E+00
(PID.TID 0000.0001) %MON ad_dynstat_adwvel_mean       =   3.1942457399898E-04
(PID.TID 0000.0001) %MON ad_dynstat_adwvel_sd         =   2.9055599037843E-02
(PID.TID 0000.0001) %MON ad_dynstat_adwvel_del2       =   1.6225465052341E-03
(PID.TID 0000.0001) %MON ad_dynstat_adtheta_max       =   4.5638916058741E-03
(PID.TID 0000.0001) %MON ad_dynstat_adtheta_min       =  -4.6650502440451E-03
(PID.TID 0000.0001) %MON ad_dynstat_adtheta_mean      =   5.0035355800212E-07
(PID.TID 0000.0001) %MON ad_dynstat_adtheta_sd        =   1.9053946493471E-04
(PID.TID 0000.0001) %MON ad_dynstat_adtheta_del2      =   1.2189770502236E-05
(PID.TID 0000.0001) %MON ad_dynstat_adsalt_max        =   2.1783096191734E-02
(PID.TID 0000.0001) %MON ad_dynstat_adsalt_min        =  -1.9718254995936E-02
(PID.TID 0000.0001) %MON ad_dynstat_adsalt_mean       =  -2.2306276678348E-06
(PID.TID 0000.0001) %MON ad_dynstat_adsalt_sd         =   8.8385944774360E-04
(PID.TID 0000.0001) %MON ad_dynstat_adsalt_del2       =   5.5970294111511E-05
(PID.TID 0000.0001) %MON ad_dynstat_adsst_max         =   1.7714999552121E-04
(PID.TID 0000.0001) %MON ad_dynstat_adsst_min         =  -1.7334674347016E-04
(PID.TID 0000.0001) %MON ad_dynstat_adsst_mean        =  -1.0920337962502E-07
(PID.TID 0000.0001) %MON ad_dynstat_adsst_sd          =   8.6578604287010E-06
(PID.TID 0000.0001) %MON ad_dynstat_adsst_del2        =   6.9879878275030E-07
(PID.TID 0000.0001) %MON ad_dynstat_adsss_max         =   4.9426747936339E-04
(PID.TID 0000.0001) %MON ad_dynstat_adsss_min         =  -6.5324455230094E-04
(PID.TID 0000.0001) %MON ad_dynstat_adsss_mean        =  -2.9967241794513E-07
(PID.TID 0000.0001) %MON ad_dynstat_adsss_sd          =   2.8432740454969E-05
(PID.TID 0000.0001) %MON ad_dynstat_adsss_del2        =   2.6248643518296E-06
(PID.TID 0000.0001) %MON ad_extforcing_adqnet_max     =   0.0000000000000E+00
(PID.TID 0000.0001) %MON ad_extforcing_adqnet_min     =   0.0000000000000E+00
(PID.TID 0000.0001) %MON ad_extforcing_adqnet_mean    =   0.0000000000000E+00
(PID.TID 0000.0001) %MON ad_extforcing_adqnet_sd      =   0.0000000000000E+00
(PID.TID 0000.0001) %MON ad_extforcing_adqnet_del2    =   0.0000000000000E+00
(PID.TID 0000.0001) %MON ad_extforcing_adempmr_max    =   1.1882518116452E+03
(PID.TID 0000.0001) %MON ad_extforcing_adempmr_min    =  -1.2989861511087E+03
(PID.TID 0000.0001) %MON ad_extforcing_adempmr_mean   =   7.7148797132815E-01
(PID.TID 0000.0001) %MON ad_extforcing_adempmr_sd     =   7.8533298186668E+01
(PID.TID 0000.0001) %MON ad_extforcing_adempmr_del2   =   7.1935339629577E+00
(PID.TID 0000.0001) %MON ad_extforcing_adfu_max       =   0.0000000000000E+00
(PID.TID 0000.0001) %MON ad_extforcing_adfu_min       =   0.0000000000000E+00
(PID.TID 0000.0001) %MON ad_extforcing_adfu_mean      =   0.0000000000000E+00
(PID.TID 0000.0001) %MON ad_extforcing_adfu_sd        =   0.0000000000000E+00
(PID.TID 0000.0001) %MON ad_extforcing_adfu_del2      =   0.0000000000000E+00
(PID.TID 0000.0001) %MON ad_extforcing_adfv_max       =   0.0000000000000E+00
(PID.TID 0000.0001) %MON ad_extforcing_adfv_min       =   0.0000000000000E+00
(PID.TID 0000.0001) %MON ad_extforcing_adfv_mean      =   0.0000000000000E+00
(PID.TID 0000.0001) %MON ad_extforcing_adfv_sd        =   0.0000000000000E+00
(PID.TID 0000.0001) %MON ad_extforcing_adfv_del2      =   0.0000000000000E+00
(PID.TID 0000.0001) %MON ad_advcfl_aduvel_max         =   9.7142684440939E-04
(PID.TID 0000.0001) %MON ad_advcfl_advvel_max         =   3.4736015725700E-03
(PID.TID 0000.0001) %MON ad_advcfl_adwvel_max         =   3.9749566377359E+02
(PID.TID 0000.0001) %MON ad_advcfl_adW_hf_max         =   5.6117034885683E+02
(PID.TID 0000.0001) // =======================================================
(PID.TID 0000.0001) // End MONITOR dynamic field statistics
(PID.TID 0000.0001) // =======================================================
 cg2d: Sum(rhs),rhsMax =   3.40990430336419E-12  4.07151934723104E-08
time,SST,SSS,fu,fv,Q,E-P,i0,i1,a,b =   1.9440E+06  5.8585E-01  3.4641E+01 -3.0333E-02 -4.7351E-02  2.5945E+02  0.0000E+00     1     2  2.5000E-01  7.5000E-01
time,fu0,fu1,fu =   1.9440E+06 -3.5633E-02 -1.4435E-02 -3.0333E-02  2.500000000000000E-01  7.500000000000000E-01
 cg2d: Sum(rhs),rhsMax =  -2.73808753448179E-13  7.63411997016480E+00
time,SST,SSS,fu,fv,Q,E-P,i0,i1,a,b =   1.9872E+06  5.6102E-01  3.4636E+01 -2.9980E-02 -4.6691E-02  2.5903E+02  0.0000E+00     1     2  2.6667E-01  7.3333E-01
time,fu0,fu1,fu =   1.9872E+06 -3.5633E-02 -1.4435E-02 -2.9980E-02  2.666666666666667E-01  7.333333333333334E-01
 cg2d: Sum(rhs),rhsMax =   9.41607902760211E-15  7.83757970972505E+00
time,SST,SSS,fu,fv,Q,E-P,i0,i1,a,b =   2.0304E+06  5.3618E-01  3.4631E+01 -2.9627E-02 -4.6031E-02  2.5861E+02  0.0000E+00     1     2  2.8333E-01  7.1667E-01
time,fu0,fu1,fu =   2.0304E+06 -3.5633E-02 -1.4435E-02 -2.9627E-02  2.833333333333333E-01  7.166666666666667E-01
 cg2d: Sum(rhs),rhsMax =  -1.52620971416439E-13  7.97661649749668E+00
(PID.TID 0000.0001) // =======================================================
(PID.TID 0000.0001) // Begin MONITOR dynamic field statistics
(PID.TID 0000.0001) // =======================================================
(PID.TID 0000.0001) %MON ad_time_tsnumber             =                    48
(PID.TID 0000.0001) %MON ad_time_secondsf             =   2.0736000000000E+06
(PID.TID 0000.0001) %MON ad_dynstat_adeta_max         =   2.1471136291592E-03
(PID.TID 0000.0001) %MON ad_dynstat_adeta_min         =  -4.4411611327849E-03
(PID.TID 0000.0001) %MON ad_dynstat_adeta_mean        =   2.7107528435652E-06
(PID.TID 0000.0001) %MON ad_dynstat_adeta_sd          =   2.8650796069357E-04
(PID.TID 0000.0001) %MON ad_dynstat_adeta_del2        =   2.7021051290493E-05
(PID.TID 0000.0001) %MON ad_dynstat_aduvel_max        =   5.2978850337088E-03
(PID.TID 0000.0001) %MON ad_dynstat_aduvel_min        =  -9.1384338190712E-03
(PID.TID 0000.0001) %MON ad_dynstat_aduvel_mean       =   2.1183283756209E-05
(PID.TID 0000.0001) %MON ad_dynstat_aduvel_sd         =   5.0062372784406E-04
(PID.TID 0000.0001) %MON ad_dynstat_aduvel_del2       =   3.2229026349151E-05
(PID.TID 0000.0001) %MON ad_dynstat_advvel_max        =   2.5372249290111E-02
(PID.TID 0000.0001) %MON ad_dynstat_advvel_min        =  -3.5375892635890E-02
(PID.TID 0000.0001) %MON ad_dynstat_advvel_mean       =  -2.5053335848671E-05
(PID.TID 0000.0001) %MON ad_dynstat_advvel_sd         =   1.7188822003435E-03
(PID.TID 0000.0001) %MON ad_dynstat_advvel_del2       =   1.1487252018993E-04
(PID.TID 0000.0001) %MON ad_dynstat_adwvel_max        =   1.9144439983725E+00
(PID.TID 0000.0001) %MON ad_dynstat_adwvel_min        =  -1.0665844742187E+00
(PID.TID 0000.0001) %MON ad_dynstat_adwvel_mean       =   3.1574202348986E-04
(PID.TID 0000.0001) %MON ad_dynstat_adwvel_sd         =   2.8504165911444E-02
(PID.TID 0000.0001) %MON ad_dynstat_adwvel_del2       =   1.5441254354278E-03
(PID.TID 0000.0001) %MON ad_dynstat_adtheta_max       =   4.4896640585966E-03
(PID.TID 0000.0001) %MON ad_dynstat_adtheta_min       =  -4.6022263584468E-03
(PID.TID 0000.0001) %MON ad_dynstat_adtheta_mean      =   5.0517351143155E-07
(PID.TID 0000.0001) %MON ad_dynstat_adtheta_sd        =   1.8794608199047E-04
(PID.TID 0000.0001) %MON ad_dynstat_adtheta_del2      =   1.1801767062707E-05
(PID.TID 0000.0001) %MON ad_dynstat_adsalt_max        =   2.1427588952003E-02
(PID.TID 0000.0001) %MON ad_dynstat_adsalt_min        =  -1.9391794056399E-02
(PID.TID 0000.0001) %MON ad_dynstat_adsalt_mean       =  -2.2087010385401E-06
(PID.TID 0000.0001) %MON ad_dynstat_adsalt_sd         =   8.7214337588299E-04
(PID.TID 0000.0001) %MON ad_dynstat_adsalt_del2       =   5.4382303511852E-05
(PID.TID 0000.0001) %MON ad_dynstat_adsst_max         =   1.7354346176950E-04
(PID.TID 0000.0001) %MON ad_dynstat_adsst_min         =  -1.7078171901016E-04
(PID.TID 0000.0001) %MON ad_dynstat_adsst_mean        =  -7.5574018413240E-08
(PID.TID 0000.0001) %MON ad_dynstat_adsst_sd          =   8.4734366957718E-06
(PID.TID 0000.0001) %MON ad_dynstat_adsst_del2        =   6.7895829715794E-07
(PID.TID 0000.0001) %MON ad_dynstat_adsss_max         =   4.8820703734915E-04
(PID.TID 0000.0001) %MON ad_dynstat_adsss_min         =  -6.4370917140733E-04
(PID.TID 0000.0001) %MON ad_dynstat_adsss_mean        =  -3.6104228139614E-07
(PID.TID 0000.0001) %MON ad_dynstat_adsss_sd          =   2.7877177595624E-05
(PID.TID 0000.0001) %MON ad_dynstat_adsss_del2        =   2.5759290179198E-06
(PID.TID 0000.0001) %MON ad_extforcing_adqnet_max     =   0.0000000000000E+00
(PID.TID 0000.0001) %MON ad_extforcing_adqnet_min     =   0.0000000000000E+00
(PID.TID 0000.0001) %MON ad_extforcing_adqnet_mean    =   0.0000000000000E+00
(PID.TID 0000.0001) %MON ad_extforcing_adqnet_sd      =   0.0000000000000E+00
(PID.TID 0000.0001) %MON ad_extforcing_adqnet_del2    =   0.0000000000000E+00
(PID.TID 0000.0001) %MON ad_extforcing_adempmr_max    =   1.2097882404337E+03
(PID.TID 0000.0001) %MON ad_extforcing_adempmr_min    =  -1.3230790332990E+03
(PID.TID 0000.0001) %MON ad_extforcing_adempmr_mean   =   7.5655576420155E-01
(PID.TID 0000.0001) %MON ad_extforcing_adempmr_sd     =   7.9361058202239E+01
(PID.TID 0000.0001) %MON ad_extforcing_adempmr_del2   =   7.2632188804891E+00
(PID.TID 0000.0001) %MON ad_extforcing_adfu_max       =   0.0000000000000E+00
(PID.TID 0000.0001) %MON ad_extforcing_adfu_min       =   0.0000000000000E+00
(PID.TID 0000.0001) %MON ad_extforcing_adfu_mean      =   0.0000000000000E+00
(PID.TID 0000.0001) %MON ad_extforcing_adfu_sd        =   0.0000000000000E+00
(PID.TID 0000.0001) %MON ad_extforcing_adfu_del2      =   0.0000000000000E+00
(PID.TID 0000.0001) %MON ad_extforcing_adfv_max       =   0.0000000000000E+00
(PID.TID 0000.0001) %MON ad_extforcing_adfv_min       =   0.0000000000000E+00
(PID.TID 0000.0001) %MON ad_extforcing_adfv_mean      =   0.0000000000000E+00
(PID.TID 0000.0001) %MON ad_extforcing_adfv_sd        =   0.0000000000000E+00
(PID.TID 0000.0001) %MON ad_extforcing_adfv_del2      =   0.0000000000000E+00
(PID.TID 0000.0001) %MON ad_advcfl_aduvel_max         =   1.0170934245722E-03
(PID.TID 0000.0001) %MON ad_advcfl_advvel_max         =   3.4364842890235E-03
(PID.TID 0000.0001) %MON ad_advcfl_adwvel_max         =   3.9208963928651E+02
(PID.TID 0000.0001) %MON ad_advcfl_adW_hf_max         =   5.5353831428683E+02
(PID.TID 0000.0001) // =======================================================
(PID.TID 0000.0001) // End MONITOR dynamic field statistics
(PID.TID 0000.0001) // =======================================================
 cg2d: Sum(rhs),rhsMax =   3.67031752213087E-12  3.94908228972615E-08
(PID.TID 0000.0001) // =======================================================
(PID.TID 0000.0001) // Begin MONITOR dynamic field statistics
(PID.TID 0000.0001) // =======================================================
(PID.TID 0000.0001) %MON ad_time_tsnumber             =                    47
(PID.TID 0000.0001) %MON ad_time_secondsf             =   2.0304000000000E+06
(PID.TID 0000.0001) %MON ad_dynstat_adeta_max         =   1.9857647972014E-03
(PID.TID 0000.0001) %MON ad_dynstat_adeta_min         =  -4.2104401535326E-03
(PID.TID 0000.0001) %MON ad_dynstat_adeta_mean        =   2.0930840425527E-06
(PID.TID 0000.0001) %MON ad_dynstat_adeta_sd          =   2.8349599966073E-04
(PID.TID 0000.0001) %MON ad_dynstat_adeta_del2        =   2.6543898938474E-05
(PID.TID 0000.0001) %MON ad_dynstat_aduvel_max        =   5.2471589896183E-03
(PID.TID 0000.0001) %MON ad_dynstat_aduvel_min        =  -9.4160089704281E-03
(PID.TID 0000.0001) %MON ad_dynstat_aduvel_mean       =   2.7166582760898E-05
(PID.TID 0000.0001) %MON ad_dynstat_aduvel_sd         =   5.1061494750759E-04
(PID.TID 0000.0001) %MON ad_dynstat_aduvel_del2       =   3.3025591207880E-05
(PID.TID 0000.0001) %MON ad_dynstat_advvel_max        =   2.4527509030573E-02
(PID.TID 0000.0001) %MON ad_dynstat_advvel_min        =  -3.4726800976040E-02
(PID.TID 0000.0001) %MON ad_dynstat_advvel_mean       =  -2.6193445528868E-05
(PID.TID 0000.0001) %MON ad_dynstat_advvel_sd         =   1.6984308857429E-03
(PID.TID 0000.0001) %MON ad_dynstat_advvel_del2       =   1.1570441457898E-04
(PID.TID 0000.0001) %MON ad_dynstat_adwvel_max        =   1.8881680382037E+00
(PID.TID 0000.0001) %MON ad_dynstat_adwvel_min        =  -1.0474214363871E+00
(PID.TID 0000.0001) %MON ad_dynstat_adwvel_mean       =   3.1174750378069E-04
(PID.TID 0000.0001) %MON ad_dynstat_adwvel_sd         =   2.7972157788753E-02
(PID.TID 0000.0001) %MON ad_dynstat_adwvel_del2       =   1.4585720736699E-03
(PID.TID 0000.0001) %MON ad_dynstat_adtheta_max       =   4.4133148424886E-03
(PID.TID 0000.0001) %MON ad_dynstat_adtheta_min       =  -4.5374458707311E-03
(PID.TID 0000.0001) %MON ad_dynstat_adtheta_mean      =   5.1033906044518E-07
(PID.TID 0000.0001) %MON ad_dynstat_adtheta_sd        =   1.8512525039552E-04
(PID.TID 0000.0001) %MON ad_dynstat_adtheta_del2      =   1.1373080770940E-05
(PID.TID 0000.0001) %MON ad_dynstat_adsalt_max        =   2.1034065451925E-02
(PID.TID 0000.0001) %MON ad_dynstat_adsalt_min        =  -1.9056155616562E-02
(PID.TID 0000.0001) %MON ad_dynstat_adsalt_mean       =  -2.1886952294740E-06
(PID.TID 0000.0001) %MON ad_dynstat_adsalt_sd         =   8.5926091316165E-04
(PID.TID 0000.0001) %MON ad_dynstat_adsalt_del2       =   5.2557204529897E-05
(PID.TID 0000.0001) %MON ad_dynstat_adsst_max         =   1.7088956079802E-04
(PID.TID 0000.0001) %MON ad_dynstat_adsst_min         =  -1.6805765027626E-04
(PID.TID 0000.0001) %MON ad_dynstat_adsst_mean        =  -4.3980291179999E-08
(PID.TID 0000.0001) %MON ad_dynstat_adsst_sd          =   8.3034828380117E-06
(PID.TID 0000.0001) %MON ad_dynstat_adsst_del2        =   6.5925096687172E-07
(PID.TID 0000.0001) %MON ad_dynstat_adsss_max         =   4.8168972361951E-04
(PID.TID 0000.0001) %MON ad_dynstat_adsss_min         =  -6.3875149582608E-04
(PID.TID 0000.0001) %MON ad_dynstat_adsss_mean        =  -4.1910042132336E-07
(PID.TID 0000.0001) %MON ad_dynstat_adsss_sd          =   2.7382476862326E-05
(PID.TID 0000.0001) %MON ad_dynstat_adsss_del2        =   2.5231987953156E-06
(PID.TID 0000.0001) %MON ad_extforcing_adqnet_max     =   0.0000000000000E+00
(PID.TID 0000.0001) %MON ad_extforcing_adqnet_min     =   0.0000000000000E+00
(PID.TID 0000.0001) %MON ad_extforcing_adqnet_mean    =   0.0000000000000E+00
(PID.TID 0000.0001) %MON ad_extforcing_adqnet_sd      =   0.0000000000000E+00
(PID.TID 0000.0001) %MON ad_extforcing_adqnet_del2    =   0.0000000000000E+00
(PID.TID 0000.0001) %MON ad_extforcing_adempmr_max    =   1.2309340248200E+03
(PID.TID 0000.0001) %MON ad_extforcing_adempmr_min    =  -1.3471385945188E+03
(PID.TID 0000.0001) %MON ad_extforcing_adempmr_mean   =   7.4037230515671E-01
(PID.TID 0000.0001) %MON ad_extforcing_adempmr_sd     =   8.0155080063640E+01
(PID.TID 0000.0001) %MON ad_extforcing_adempmr_del2   =   7.3300960598985E+00
(PID.TID 0000.0001) %MON ad_extforcing_adfu_max       =   0.0000000000000E+00
(PID.TID 0000.0001) %MON ad_extforcing_adfu_min       =   0.0000000000000E+00
(PID.TID 0000.0001) %MON ad_extforcing_adfu_mean      =   0.0000000000000E+00
(PID.TID 0000.0001) %MON ad_extforcing_adfu_sd        =   0.0000000000000E+00
(PID.TID 0000.0001) %MON ad_extforcing_adfu_del2      =   0.0000000000000E+00
(PID.TID 0000.0001) %MON ad_extforcing_adfv_max       =   0.0000000000000E+00
(PID.TID 0000.0001) %MON ad_extforcing_adfv_min       =   0.0000000000000E+00
(PID.TID 0000.0001) %MON ad_extforcing_adfv_mean      =   0.0000000000000E+00
(PID.TID 0000.0001) %MON ad_extforcing_adfv_sd        =   0.0000000000000E+00
(PID.TID 0000.0001) %MON ad_extforcing_adfv_del2      =   0.0000000000000E+00
(PID.TID 0000.0001) %MON ad_advcfl_aduvel_max         =   1.0561927631291E-03
(PID.TID 0000.0001) %MON ad_advcfl_advvel_max         =   3.3734302393584E-03
(PID.TID 0000.0001) %MON ad_advcfl_adwvel_max         =   3.8647277615859E+02
(PID.TID 0000.0001) %MON ad_advcfl_adW_hf_max         =   5.4560862516507E+02
(PID.TID 0000.0001) // =======================================================
(PID.TID 0000.0001) // End MONITOR dynamic field statistics
(PID.TID 0000.0001) // =======================================================
 cg2d: Sum(rhs),rhsMax =   3.97154531484034E-12  3.83166698328011E-08
(PID.TID 0000.0001) // =======================================================
(PID.TID 0000.0001) // Begin MONITOR dynamic field statistics
(PID.TID 0000.0001) // =======================================================
(PID.TID 0000.0001) %MON ad_time_tsnumber             =                    46
(PID.TID 0000.0001) %MON ad_time_secondsf             =   1.9872000000000E+06
(PID.TID 0000.0001) %MON ad_dynstat_adeta_max         =   1.8271389621243E-03
(PID.TID 0000.0001) %MON ad_dynstat_adeta_min         =  -3.9853772911630E-03
(PID.TID 0000.0001) %MON ad_dynstat_adeta_mean        =   1.4965932404231E-06
(PID.TID 0000.0001) %MON ad_dynstat_adeta_sd          =   2.8093426011199E-04
(PID.TID 0000.0001) %MON ad_dynstat_adeta_del2        =   2.6080048088651E-05
(PID.TID 0000.0001) %MON ad_dynstat_aduvel_max        =   5.1758632241183E-03
(PID.TID 0000.0001) %MON ad_dynstat_aduvel_min        =  -9.7006627167997E-03
(PID.TID 0000.0001) %MON ad_dynstat_aduvel_mean       =   3.2980455012632E-05
(PID.TID 0000.0001) %MON ad_dynstat_aduvel_sd         =   5.2280155697800E-04
(PID.TID 0000.0001) %MON ad_dynstat_aduvel_del2       =   3.3774653427616E-05
(PID.TID 0000.0001) %MON ad_dynstat_advvel_max        =   2.3704271280306E-02
(PID.TID 0000.0001) %MON ad_dynstat_advvel_min        =  -3.3818696574974E-02
(PID.TID 0000.0001) %MON ad_dynstat_advvel_mean       =  -2.7411385826171E-05
(PID.TID 0000.0001) %MON ad_dynstat_advvel_sd         =   1.6711462666118E-03
(PID.TID 0000.0001) %MON ad_dynstat_advvel_del2       =   1.1597351642812E-04
(PID.TID 0000.0001) %MON ad_dynstat_adwvel_max        =   1.8609606395362E+00
(PID.TID 0000.0001) %MON ad_dynstat_adwvel_min        =  -1.0278370626395E+00
(PID.TID 0000.0001) %MON ad_dynstat_adwvel_mean       =   3.0745775610452E-04
(PID.TID 0000.0001) %MON ad_dynstat_adwvel_sd         =   2.7472415188055E-02
(PID.TID 0000.0001) %MON ad_dynstat_adwvel_del2       =   1.3693963080296E-03
(PID.TID 0000.0001) %MON ad_dynstat_adtheta_max       =   4.3355860117448E-03
(PID.TID 0000.0001) %MON ad_dynstat_adtheta_min       =  -4.4708346824152E-03
(PID.TID 0000.0001) %MON ad_dynstat_adtheta_mean      =   5.1582810810842E-07
(PID.TID 0000.0001) %MON ad_dynstat_adtheta_sd        =   1.8215349326027E-04
(PID.TID 0000.0001) %MON ad_dynstat_adtheta_del2      =   1.0906294656433E-05
(PID.TID 0000.0001) %MON ad_dynstat_adsalt_max        =   2.0602332930258E-02
(PID.TID 0000.0001) %MON ad_dynstat_adsalt_min        =  -1.8714555706261E-02
(PID.TID 0000.0001) %MON ad_dynstat_adsalt_mean       =  -2.1705224061859E-06
(PID.TID 0000.0001) %MON ad_dynstat_adsalt_sd         =   8.4557521910287E-04
(PID.TID 0000.0001) %MON ad_dynstat_adsalt_del2       =   5.0561096769065E-05
(PID.TID 0000.0001) %MON ad_dynstat_adsst_max         =   1.6894891126074E-04
(PID.TID 0000.0001) %MON ad_dynstat_adsst_min         =  -1.6511356147578E-04
(PID.TID 0000.0001) %MON ad_dynstat_adsst_mean        =  -1.3249715536275E-08
(PID.TID 0000.0001) %MON ad_dynstat_adsst_sd          =   8.1479043245151E-06
(PID.TID 0000.0001) %MON ad_dynstat_adsst_del2        =   6.3946282156877E-07
(PID.TID 0000.0001) %MON ad_dynstat_adsss_max         =   4.7454519742975E-04
(PID.TID 0000.0001) %MON ad_dynstat_adsss_min         =  -6.3567223264008E-04
(PID.TID 0000.0001) %MON ad_dynstat_adsss_mean        =  -4.7646733792143E-07
(PID.TID 0000.0001) %MON ad_dynstat_adsss_sd          =   2.6938265866253E-05
(PID.TID 0000.0001) %MON ad_dynstat_adsss_del2        =   2.4676181065315E-06
(PID.TID 0000.0001) %MON ad_extforcing_adqnet_max     =   0.0000000000000E+00
(PID.TID 0000.0001) %MON ad_extforcing_adqnet_min     =   0.0000000000000E+00
(PID.TID 0000.0001) %MON ad_extforcing_adqnet_mean    =   0.0000000000000E+00
(PID.TID 0000.0001) %MON ad_extforcing_adqnet_sd      =   0.0000000000000E+00
(PID.TID 0000.0001) %MON ad_extforcing_adqnet_del2    =   0.0000000000000E+00
(PID.TID 0000.0001) %MON ad_extforcing_adempmr_max    =   1.2516701393641E+03
(PID.TID 0000.0001) %MON ad_extforcing_adempmr_min    =  -1.3708803966301E+03
(PID.TID 0000.0001) %MON ad_extforcing_adempmr_mean   =   7.2315611439115E-01
(PID.TID 0000.0001) %MON ad_extforcing_adempmr_sd     =   8.0912969333348E+01
(PID.TID 0000.0001) %MON ad_extforcing_adempmr_del2   =   7.3926340783168E+00
(PID.TID 0000.0001) %MON ad_extforcing_adfu_max       =   0.0000000000000E+00
(PID.TID 0000.0001) %MON ad_extforcing_adfu_min       =   0.0000000000000E+00
(PID.TID 0000.0001) %MON ad_extforcing_adfu_mean      =   0.0000000000000E+00
(PID.TID 0000.0001) %MON ad_extforcing_adfu_sd        =   0.0000000000000E+00
(PID.TID 0000.0001) %MON ad_extforcing_adfu_del2      =   0.0000000000000E+00
(PID.TID 0000.0001) %MON ad_extforcing_adfv_max       =   0.0000000000000E+00
(PID.TID 0000.0001) %MON ad_extforcing_adfv_min       =   0.0000000000000E+00
(PID.TID 0000.0001) %MON ad_extforcing_adfv_mean      =   0.0000000000000E+00
(PID.TID 0000.0001) %MON ad_extforcing_adfv_sd        =   0.0000000000000E+00
(PID.TID 0000.0001) %MON ad_extforcing_adfv_del2      =   0.0000000000000E+00
(PID.TID 0000.0001) %MON ad_advcfl_aduvel_max         =   1.0881223447448E-03
(PID.TID 0000.0001) %MON ad_advcfl_advvel_max         =   3.2852151789166E-03
(PID.TID 0000.0001) %MON ad_advcfl_adwvel_max         =   3.8060117112498E+02
(PID.TID 0000.0001) %MON ad_advcfl_adW_hf_max         =   5.3731930041173E+02
(PID.TID 0000.0001) // =======================================================
(PID.TID 0000.0001) // End MONITOR dynamic field statistics
(PID.TID 0000.0001) // =======================================================
 cg2d: Sum(rhs),rhsMax =   4.32767363611752E-12  3.72433265750690E-08
time,SST,SSS,fu,fv,Q,E-P,i0,i1,a,b =   1.8144E+06  6.6037E-01  3.4656E+01 -3.1393E-02 -4.9332E-02  2.6071E+02  0.0000E+00     1     2  2.0000E-01  8.0000E-01
time,fu0,fu1,fu =   1.8144E+06 -3.5633E-02 -1.4435E-02 -3.1393E-02  2.000000000000000E-01  8.000000000000000E-01
 cg2d: Sum(rhs),rhsMax =  -1.74991965362636E-13  7.19604411743549E+00
time,SST,SSS,fu,fv,Q,E-P,i0,i1,a,b =   1.8576E+06  6.3553E-01  3.4651E+01 -3.1040E-02 -4.8672E-02  2.6029E+02  0.0000E+00     1     2  2.1667E-01  7.8333E-01
time,fu0,fu1,fu =   1.8576E+06 -3.5633E-02 -1.4435E-02 -3.1040E-02  2.166666666666667E-01  7.833333333333333E-01
 cg2d: Sum(rhs),rhsMax =  -6.70324906693054E-13  7.21623310024422E+00
time,SST,SSS,fu,fv,Q,E-P,i0,i1,a,b =   1.9008E+06  6.1069E-01  3.4646E+01 -3.0687E-02 -4.8012E-02  2.5987E+02  0.0000E+00     1     2  2.3333E-01  7.6667E-01
time,fu0,fu1,fu =   1.9008E+06 -3.5633E-02 -1.4435E-02 -3.0687E-02  2.333333333333333E-01  7.666666666666666E-01
 cg2d: Sum(rhs),rhsMax =  -9.12020459153950E-13  7.36407436363192E+00
(PID.TID 0000.0001) // =======================================================
(PID.TID 0000.0001) // Begin MONITOR dynamic field statistics
(PID.TID 0000.0001) // =======================================================
(PID.TID 0000.0001) %MON ad_time_tsnumber             =                    45
(PID.TID 0000.0001) %MON ad_time_secondsf             =   1.9440000000000E+06
(PID.TID 0000.0001) %MON ad_dynstat_adeta_max         =   1.6737762175089E-03
(PID.TID 0000.0001) %MON ad_dynstat_adeta_min         =  -3.7729327544694E-03
(PID.TID 0000.0001) %MON ad_dynstat_adeta_mean        =   9.2761236886913E-07
(PID.TID 0000.0001) %MON ad_dynstat_adeta_sd          =   2.7867718202756E-04
(PID.TID 0000.0001) %MON ad_dynstat_adeta_del2        =   2.5734313805017E-05
(PID.TID 0000.0001) %MON ad_dynstat_aduvel_max        =   5.1848176861045E-03
(PID.TID 0000.0001) %MON ad_dynstat_aduvel_min        =  -9.9159700070439E-03
(PID.TID 0000.0001) %MON ad_dynstat_aduvel_mean       =   3.8571815231240E-05
(PID.TID 0000.0001) %MON ad_dynstat_aduvel_sd         =   5.3688155195264E-04
(PID.TID 0000.0001) %MON ad_dynstat_aduvel_del2       =   3.4435448776743E-05
(PID.TID 0000.0001) %MON ad_dynstat_advvel_max        =   2.2747060915511E-02
(PID.TID 0000.0001) %MON ad_dynstat_advvel_min        =  -3.2661858889461E-02
(PID.TID 0000.0001) %MON ad_dynstat_advvel_mean       =  -2.8884657569601E-05
(PID.TID 0000.0001) %MON ad_dynstat_advvel_sd         =   1.6371518511450E-03
(PID.TID 0000.0001) %MON ad_dynstat_advvel_del2       =   1.1568906576120E-04
(PID.TID 0000.0001) %MON ad_dynstat_adwvel_max        =   1.8329244213194E+00
(PID.TID 0000.0001) %MON ad_dynstat_adwvel_min        =  -1.0080095648202E+00
(PID.TID 0000.0001) %MON ad_dynstat_adwvel_mean       =   3.0294865161083E-04
(PID.TID 0000.0001) %MON ad_dynstat_adwvel_sd         =   2.7014969445561E-02
(PID.TID 0000.0001) %MON ad_dynstat_adwvel_del2       =   1.2811908144707E-03
(PID.TID 0000.0001) %MON ad_dynstat_adtheta_max       =   4.2571688755535E-03
(PID.TID 0000.0001) %MON ad_dynstat_adtheta_min       =  -4.4027370514447E-03
(PID.TID 0000.0001) %MON ad_dynstat_adtheta_mean      =   5.2164366126712E-07
(PID.TID 0000.0001) %MON ad_dynstat_adtheta_sd        =   1.7910928638329E-04
(PID.TID 0000.0001) %MON ad_dynstat_adtheta_del2      =   1.0422252290824E-05
(PID.TID 0000.0001) %MON ad_dynstat_adsalt_max        =   2.0137879213288E-02
(PID.TID 0000.0001) %MON ad_dynstat_adsalt_min        =  -1.8369993368581E-02
(PID.TID 0000.0001) %MON ad_dynstat_adsalt_mean       =  -2.1544571039584E-06
(PID.TID 0000.0001) %MON ad_dynstat_adsalt_sd         =   8.3146229785868E-04
(PID.TID 0000.0001) %MON ad_dynstat_adsalt_del2       =   4.8502539025620E-05
(PID.TID 0000.0001) %MON ad_dynstat_adsst_max         =   1.6979673762686E-04
(PID.TID 0000.0001) %MON ad_dynstat_adsst_min         =  -1.6197737242880E-04
(PID.TID 0000.0001) %MON ad_dynstat_adsst_mean        =   1.6403441677832E-08
(PID.TID 0000.0001) %MON ad_dynstat_adsst_sd          =   8.0193534346381E-06
(PID.TID 0000.0001) %MON ad_dynstat_adsst_del2        =   6.2300530090475E-07
(PID.TID 0000.0001) %MON ad_dynstat_adsss_max         =   4.6685124729807E-04
(PID.TID 0000.0001) %MON ad_dynstat_adsss_min         =  -6.3992317708656E-04
(PID.TID 0000.0001) %MON ad_dynstat_adsss_mean        =  -5.3180779928256E-07
(PID.TID 0000.0001) %MON ad_dynstat_adsss_sd          =   2.6583787408200E-05
(PID.TID 0000.0001) %MON ad_dynstat_adsss_del2        =   2.4173573060312E-06
(PID.TID 0000.0001) %MON ad_extforcing_adqnet_max     =   0.0000000000000E+00
(PID.TID 0000.0001) %MON ad_extforcing_adqnet_min     =   0.0000000000000E+00
(PID.TID 0000.0001) %MON ad_extforcing_adqnet_mean    =   0.0000000000000E+00
(PID.TID 0000.0001) %MON ad_extforcing_adqnet_sd      =   0.0000000000000E+00
(PID.TID 0000.0001) %MON ad_extforcing_adqnet_del2    =   0.0000000000000E+00
(PID.TID 0000.0001) %MON ad_extforcing_adempmr_max    =   1.2719852557949E+03
(PID.TID 0000.0001) %MON ad_extforcing_adempmr_min    =  -1.3943411175185E+03
(PID.TID 0000.0001) %MON ad_extforcing_adempmr_mean   =   7.0491182992816E-01
(PID.TID 0000.0001) %MON ad_extforcing_adempmr_sd     =   8.1635632687928E+01
(PID.TID 0000.0001) %MON ad_extforcing_adempmr_del2   =   7.4507990954538E+00
(PID.TID 0000.0001) %MON ad_extforcing_adfu_max       =   0.0000000000000E+00
(PID.TID 0000.0001) %MON ad_extforcing_adfu_min       =   0.0000000000000E+00
(PID.TID 0000.0001) %MON ad_extforcing_adfu_mean      =   0.0000000000000E+00
(PID.TID 0000.0001) %MON ad_extforcing_adfu_sd        =   0.0000000000000E+00
(PID.TID 0000.0001) %MON ad_extforcing_adfu_del2      =   0.0000000000000E+00
(PID.TID 0000.0001) %MON ad_extforcing_adfv_max       =   0.0000000000000E+00
(PID.TID 0000.0001) %MON ad_extforcing_adfv_min       =   0.0000000000000E+00
(PID.TID 0000.0001) %MON ad_extforcing_adfv_mean      =   0.0000000000000E+00
(PID.TID 0000.0001) %MON ad_extforcing_adfv_sd        =   0.0000000000000E+00
(PID.TID 0000.0001) %MON ad_extforcing_adfv_del2      =   0.0000000000000E+00
(PID.TID 0000.0001) %MON ad_advcfl_aduvel_max         =   1.1122733414695E-03
(PID.TID 0000.0001) %MON ad_advcfl_advvel_max         =   3.1728376744920E-03
(PID.TID 0000.0001) %MON ad_advcfl_adwvel_max         =   3.7449551464633E+02
(PID.TID 0000.0001) %MON ad_advcfl_adW_hf_max         =   5.2869955008893E+02
(PID.TID 0000.0001) // =======================================================
(PID.TID 0000.0001) // End MONITOR dynamic field statistics
(PID.TID 0000.0001) // =======================================================
 cg2d: Sum(rhs),rhsMax =   4.57989202118370E-12  3.62747992387574E-08
(PID.TID 0000.0001) // =======================================================
(PID.TID 0000.0001) // Begin MONITOR dynamic field statistics
(PID.TID 0000.0001) // =======================================================
(PID.TID 0000.0001) %MON ad_time_tsnumber             =                    44
(PID.TID 0000.0001) %MON ad_time_secondsf             =   1.9008000000000E+06
(PID.TID 0000.0001) %MON ad_dynstat_adeta_max         =   1.5277596607996E-03
(PID.TID 0000.0001) %MON ad_dynstat_adeta_min         =  -3.5752973776151E-03
(PID.TID 0000.0001) %MON ad_dynstat_adeta_mean        =   3.9185063405939E-07
(PID.TID 0000.0001) %MON ad_dynstat_adeta_sd          =   2.7657108002944E-04
(PID.TID 0000.0001) %MON ad_dynstat_adeta_del2        =   2.5492512376221E-05
(PID.TID 0000.0001) %MON ad_dynstat_aduvel_max        =   5.3506553199700E-03
(PID.TID 0000.0001) %MON ad_dynstat_aduvel_min        =  -1.0058636733998E-02
(PID.TID 0000.0001) %MON ad_dynstat_aduvel_mean       =   4.3887495064372E-05
(PID.TID 0000.0001) %MON ad_dynstat_aduvel_sd         =   5.5239512932924E-04
(PID.TID 0000.0001) %MON ad_dynstat_aduvel_del2       =   3.5016131512178E-05
(PID.TID 0000.0001) %MON ad_dynstat_advvel_max        =   2.1700996375974E-02
(PID.TID 0000.0001) %MON ad_dynstat_advvel_min        =  -3.1269503106834E-02
(PID.TID 0000.0001) %MON ad_dynstat_advvel_mean       =  -3.0761418636430E-05
(PID.TID 0000.0001) %MON ad_dynstat_advvel_sd         =   1.5965410887010E-03
(PID.TID 0000.0001) %MON ad_dynstat_advvel_del2       =   1.1477329907655E-04
(PID.TID 0000.0001) %MON ad_dynstat_adwvel_max        =   1.8042506404436E+00
(PID.TID 0000.0001) %MON ad_dynstat_adwvel_min        =  -9.8809720554959E-01
(PID.TID 0000.0001) %MON ad_dynstat_adwvel_mean       =   2.9821193036246E-04
(PID.TID 0000.0001) %MON ad_dynstat_adwvel_sd         =   2.6607032247860E-02
(PID.TID 0000.0001) %MON ad_dynstat_adwvel_del2       =   1.1953607277741E-03
(PID.TID 0000.0001) %MON ad_dynstat_adtheta_max       =   4.1787748372212E-03
(PID.TID 0000.0001) %MON ad_dynstat_adtheta_min       =  -4.3336201185955E-03
(PID.TID 0000.0001) %MON ad_dynstat_adtheta_mean      =   5.2776637663229E-07
(PID.TID 0000.0001) %MON ad_dynstat_adtheta_sd        =   1.7606965520468E-04
(PID.TID 0000.0001) %MON ad_dynstat_adtheta_del2      =   9.9598954345617E-06
(PID.TID 0000.0001) %MON ad_dynstat_adsalt_max        =   1.9646847499080E-02
(PID.TID 0000.0001) %MON ad_dynstat_adsalt_min        =  -1.8025554946935E-02
(PID.TID 0000.0001) %MON ad_dynstat_adsalt_mean       =  -2.1406252600154E-06
(PID.TID 0000.0001) %MON ad_dynstat_adsalt_sd         =   8.1729492323687E-04
(PID.TID 0000.0001) %MON ad_dynstat_adsalt_del2       =   4.6527916754383E-05
(PID.TID 0000.0001) %MON ad_dynstat_adsst_max         =   1.6878246164016E-04
(PID.TID 0000.0001) %MON ad_dynstat_adsst_min         =  -1.5872442798718E-04
(PID.TID 0000.0001) %MON ad_dynstat_adsst_mean        =   4.3223261964382E-08
(PID.TID 0000.0001) %MON ad_dynstat_adsst_sd          =   7.8658303036295E-06
(PID.TID 0000.0001) %MON ad_dynstat_adsst_del2        =   6.0880491889212E-07
(PID.TID 0000.0001) %MON ad_dynstat_adsss_max         =   4.5881808692453E-04
(PID.TID 0000.0001) %MON ad_dynstat_adsss_min         =  -6.3783159403182E-04
(PID.TID 0000.0001) %MON ad_dynstat_adsss_mean        =  -5.8002546123718E-07
(PID.TID 0000.0001) %MON ad_dynstat_adsss_sd          =   2.6153963793067E-05
(PID.TID 0000.0001) %MON ad_dynstat_adsss_del2        =   2.3626791704226E-06
(PID.TID 0000.0001) %MON ad_extforcing_adqnet_max     =   0.0000000000000E+00
(PID.TID 0000.0001) %MON ad_extforcing_adqnet_min     =   0.0000000000000E+00
(PID.TID 0000.0001) %MON ad_extforcing_adqnet_mean    =   0.0000000000000E+00
(PID.TID 0000.0001) %MON ad_extforcing_adqnet_sd      =   0.0000000000000E+00
(PID.TID 0000.0001) %MON ad_extforcing_adqnet_del2    =   0.0000000000000E+00
(PID.TID 0000.0001) %MON ad_extforcing_adempmr_max    =   1.2918773231772E+03
(PID.TID 0000.0001) %MON ad_extforcing_adempmr_min    =  -1.4177716204299E+03
(PID.TID 0000.0001) %MON ad_extforcing_adempmr_mean   =   6.8566087711644E-01
(PID.TID 0000.0001) %MON ad_extforcing_adempmr_sd     =   8.2325920064213E+01
(PID.TID 0000.0001) %MON ad_extforcing_adempmr_del2   =   7.5050480629570E+00
(PID.TID 0000.0001) %MON ad_extforcing_adfu_max       =   0.0000000000000E+00
(PID.TID 0000.0001) %MON ad_extforcing_adfu_min       =   0.0000000000000E+00
(PID.TID 0000.0001) %MON ad_extforcing_adfu_mean      =   0.0000000000000E+00
(PID.TID 0000.0001) %MON ad_extforcing_adfu_sd        =   0.0000000000000E+00
(PID.TID 0000.0001) %MON ad_extforcing_adfu_del2      =   0.0000000000000E+00
(PID.TID 0000.0001) %MON ad_extforcing_adfv_max       =   0.0000000000000E+00
(PID.TID 0000.0001) %MON ad_extforcing_adfv_min       =   0.0000000000000E+00
(PID.TID 0000.0001) %MON ad_extforcing_adfv_mean      =   0.0000000000000E+00
(PID.TID 0000.0001) %MON ad_extforcing_adfv_sd        =   0.0000000000000E+00
(PID.TID 0000.0001) %MON ad_extforcing_adfv_del2      =   0.0000000000000E+00
(PID.TID 0000.0001) %MON ad_advcfl_aduvel_max         =   1.1282762536398E-03
(PID.TID 0000.0001) %MON ad_advcfl_advvel_max         =   3.0375814755608E-03
(PID.TID 0000.0001) %MON ad_advcfl_adwvel_max         =   3.6821741188265E+02
(PID.TID 0000.0001) %MON ad_advcfl_adW_hf_max         =   5.1983634618726E+02
(PID.TID 0000.0001) // =======================================================
(PID.TID 0000.0001) // End MONITOR dynamic field statistics
(PID.TID 0000.0001) // =======================================================
 cg2d: Sum(rhs),rhsMax =   4.85129644789417E-12  3.53941952706172E-08
(PID.TID 0000.0001) // =======================================================
(PID.TID 0000.0001) // Begin MONITOR dynamic field statistics
(PID.TID 0000.0001) // =======================================================
(PID.TID 0000.0001) %MON ad_time_tsnumber             =                    43
(PID.TID 0000.0001) %MON ad_time_secondsf             =   1.8576000000000E+06
(PID.TID 0000.0001) %MON ad_dynstat_adeta_max         =   1.3903827336814E-03
(PID.TID 0000.0001) %MON ad_dynstat_adeta_min         =  -3.5420873178322E-03
(PID.TID 0000.0001) %MON ad_dynstat_adeta_mean        =  -1.0552904342172E-07
(PID.TID 0000.0001) %MON ad_dynstat_adeta_sd          =   2.7449876011710E-04
(PID.TID 0000.0001) %MON ad_dynstat_adeta_del2        =   2.5299556022546E-05
(PID.TID 0000.0001) %MON ad_dynstat_aduvel_max        =   5.4701214809733E-03
(PID.TID 0000.0001) %MON ad_dynstat_aduvel_min        =  -1.0128350637474E-02
(PID.TID 0000.0001) %MON ad_dynstat_aduvel_mean       =   4.8888181594921E-05
(PID.TID 0000.0001) %MON ad_dynstat_aduvel_sd         =   5.6882254733177E-04
(PID.TID 0000.0001) %MON ad_dynstat_aduvel_del2       =   3.5606563946934E-05
(PID.TID 0000.0001) %MON ad_dynstat_advvel_max        =   2.0955369503087E-02
(PID.TID 0000.0001) %MON ad_dynstat_advvel_min        =  -2.9656748139325E-02
(PID.TID 0000.0001) %MON ad_dynstat_advvel_mean       =  -3.3147420921605E-05
(PID.TID 0000.0001) %MON ad_dynstat_advvel_sd         =   1.5495176659543E-03
(PID.TID 0000.0001) %MON ad_dynstat_advvel_del2       =   1.1307288233624E-04
(PID.TID 0000.0001) %MON ad_dynstat_adwvel_max        =   1.7751608437207E+00
(PID.TID 0000.0001) %MON ad_dynstat_adwvel_min        =  -9.6827608341118E-01
(PID.TID 0000.0001) %MON ad_dynstat_adwvel_mean       =   2.9323340891435E-04
(PID.TID 0000.0001) %MON ad_dynstat_adwvel_sd         =   2.6253282452558E-02
(PID.TID 0000.0001) %MON ad_dynstat_adwvel_del2       =   1.1270024916121E-03
(PID.TID 0000.0001) %MON ad_dynstat_adtheta_max       =   4.1011255034036E-03
(PID.TID 0000.0001) %MON ad_dynstat_adtheta_min       =  -4.2639709235215E-03
(PID.TID 0000.0001) %MON ad_dynstat_adtheta_mean      =   5.3416989435822E-07
(PID.TID 0000.0001) %MON ad_dynstat_adtheta_sd        =   1.7310564671577E-04
(PID.TID 0000.0001) %MON ad_dynstat_adtheta_del2      =   9.5821851758517E-06
(PID.TID 0000.0001) %MON ad_dynstat_adsalt_max        =   1.9135509272994E-02
(PID.TID 0000.0001) %MON ad_dynstat_adsalt_min        =  -1.7684369422969E-02
(PID.TID 0000.0001) %MON ad_dynstat_adsalt_mean       =  -2.1292146917901E-06
(PID.TID 0000.0001) %MON ad_dynstat_adsalt_sd         =   8.0342125552018E-04
(PID.TID 0000.0001) %MON ad_dynstat_adsalt_del2       =   4.4882246034623E-05
(PID.TID 0000.0001) %MON ad_dynstat_adsst_max         =   1.6537977448429E-04
(PID.TID 0000.0001) %MON ad_dynstat_adsst_min         =  -1.5543432236466E-04
(PID.TID 0000.0001) %MON ad_dynstat_adsst_mean        =   6.5359563098220E-08
(PID.TID 0000.0001) %MON ad_dynstat_adsst_sd          =   7.6947874443738E-06
(PID.TID 0000.0001) %MON ad_dynstat_adsst_del2        =   5.9788033298844E-07
(PID.TID 0000.0001) %MON ad_dynstat_adsss_max         =   4.5066804862506E-04
(PID.TID 0000.0001) %MON ad_dynstat_adsss_min         =  -6.2841495605313E-04
(PID.TID 0000.0001) %MON ad_dynstat_adsss_mean        =  -6.1664251079178E-07
(PID.TID 0000.0001) %MON ad_dynstat_adsss_sd          =   2.5659443203885E-05
(PID.TID 0000.0001) %MON ad_dynstat_adsss_del2        =   2.3104304532656E-06
(PID.TID 0000.0001) %MON ad_extforcing_adqnet_max     =   0.0000000000000E+00
(PID.TID 0000.0001) %MON ad_extforcing_adqnet_min     =   0.0000000000000E+00
(PID.TID 0000.0001) %MON ad_extforcing_adqnet_mean    =   0.0000000000000E+00
(PID.TID 0000.0001) %MON ad_extforcing_adqnet_sd      =   0.0000000000000E+00
(PID.TID 0000.0001) %MON ad_extforcing_adqnet_del2    =   0.0000000000000E+00
(PID.TID 0000.0001) %MON ad_extforcing_adempmr_max    =   1.3113532482884E+03
(PID.TID 0000.0001) %MON ad_extforcing_adempmr_min    =  -1.4409227487137E+03
(PID.TID 0000.0001) %MON ad_extforcing_adempmr_mean   =   6.6561281959951E-01
(PID.TID 0000.0001) %MON ad_extforcing_adempmr_sd     =   8.2982910593923E+01
(PID.TID 0000.0001) %MON ad_extforcing_adempmr_del2   =   7.5571818757272E+00
(PID.TID 0000.0001) %MON ad_extforcing_adfu_max       =   0.0000000000000E+00
(PID.TID 0000.0001) %MON ad_extforcing_adfu_min       =   0.0000000000000E+00
(PID.TID 0000.0001) %MON ad_extforcing_adfu_mean      =   0.0000000000000E+00
(PID.TID 0000.0001) %MON ad_extforcing_adfu_sd        =   0.0000000000000E+00
(PID.TID 0000.0001) %MON ad_extforcing_adfu_del2      =   0.0000000000000E+00
(PID.TID 0000.0001) %MON ad_extforcing_adfv_max       =   0.0000000000000E+00
(PID.TID 0000.0001) %MON ad_extforcing_adfv_min       =   0.0000000000000E+00
(PID.TID 0000.0001) %MON ad_extforcing_adfv_mean      =   0.0000000000000E+00
(PID.TID 0000.0001) %MON ad_extforcing_adfv_sd        =   0.0000000000000E+00
(PID.TID 0000.0001) %MON ad_extforcing_adfv_del2      =   0.0000000000000E+00
(PID.TID 0000.0001) %MON ad_advcfl_aduvel_max         =   1.1360960550623E-03
(PID.TID 0000.0001) %MON ad_advcfl_advvel_max         =   2.8809152632072E-03
(PID.TID 0000.0001) %MON ad_advcfl_adwvel_max         =   3.6184230888672E+02
(PID.TID 0000.0001) %MON ad_advcfl_adW_hf_max         =   5.1083620078126E+02
(PID.TID 0000.0001) // =======================================================
(PID.TID 0000.0001) // End MONITOR dynamic field statistics
(PID.TID 0000.0001) // =======================================================
 cg2d: Sum(rhs),rhsMax =   5.17519360698770E-12  3.45869614542808E-08
time,SST,SSS,fu,fv,Q,E-P,i0,i1,a,b =   1.6848E+06  7.3488E-01  3.4671E+01 -3.2453E-02 -5.1313E-02  2.6198E+02  0.0000E+00     1     2  1.5000E-01  8.5000E-01
time,fu0,fu1,fu =   1.6848E+06 -3.5633E-02 -1.4435E-02 -3.2453E-02  1.500000000000000E-01  8.500000000000000E-01
 cg2d: Sum(rhs),rhsMax =  -8.54795401128428E-13  7.67572566966599E+00
time,SST,SSS,fu,fv,Q,E-P,i0,i1,a,b =   1.7280E+06  7.1005E-01  3.4666E+01 -3.2100E-02 -5.0653E-02  2.6156E+02  0.0000E+00     1     2  1.6667E-01  8.3333E-01
time,fu0,fu1,fu =   1.7280E+06 -3.5633E-02 -1.4435E-02 -3.2100E-02  1.666666666666667E-01  8.333333333333334E-01
 cg2d: Sum(rhs),rhsMax =  -5.73485703370125E-13  7.14638778751150E+00
time,SST,SSS,fu,fv,Q,E-P,i0,i1,a,b =   1.7712E+06  6.8521E-01  3.4661E+01 -3.1747E-02 -4.9993E-02  2.6113E+02  0.0000E+00     1     2  1.8333E-01  8.1667E-01
time,fu0,fu1,fu =   1.7712E+06 -3.5633E-02 -1.4435E-02 -3.1747E-02  1.833333333333333E-01  8.166666666666667E-01
 cg2d: Sum(rhs),rhsMax =  -7.85656262269896E-13  7.16032443393137E+00
(PID.TID 0000.0001) // =======================================================
(PID.TID 0000.0001) // Begin MONITOR dynamic field statistics
(PID.TID 0000.0001) // =======================================================
(PID.TID 0000.0001) %MON ad_time_tsnumber             =                    42
(PID.TID 0000.0001) %MON ad_time_secondsf             =   1.8144000000000E+06
(PID.TID 0000.0001) %MON ad_dynstat_adeta_max         =   1.2635787229166E-03
(PID.TID 0000.0001) %MON ad_dynstat_adeta_min         =  -3.6815393213602E-03
(PID.TID 0000.0001) %MON ad_dynstat_adeta_mean        =  -5.5987030250693E-07
(PID.TID 0000.0001) %MON ad_dynstat_adeta_sd          =   2.7242486499529E-04
(PID.TID 0000.0001) %MON ad_dynstat_adeta_del2        =   2.5162757440357E-05
(PID.TID 0000.0001) %MON ad_dynstat_aduvel_max        =   5.5472631952761E-03
(PID.TID 0000.0001) %MON ad_dynstat_aduvel_min        =  -1.0127090839083E-02
(PID.TID 0000.0001) %MON ad_dynstat_aduvel_mean       =   5.3551487832316E-05
(PID.TID 0000.0001) %MON ad_dynstat_aduvel_sd         =   5.8563594515692E-04
(PID.TID 0000.0001) %MON ad_dynstat_aduvel_del2       =   3.6158031236597E-05
(PID.TID 0000.0001) %MON ad_dynstat_advvel_max        =   2.0085807130376E-02
(PID.TID 0000.0001) %MON ad_dynstat_advvel_min        =  -2.7839130145345E-02
(PID.TID 0000.0001) %MON ad_dynstat_advvel_mean       =  -3.6106165349949E-05
(PID.TID 0000.0001) %MON ad_dynstat_advvel_sd         =   1.4964865353633E-03
(PID.TID 0000.0001) %MON ad_dynstat_advvel_del2       =   1.1068271566612E-04
(PID.TID 0000.0001) %MON ad_dynstat_adwvel_max        =   1.7458588700710E+00
(PID.TID 0000.0001) %MON ad_dynstat_adwvel_min        =  -9.4872577007724E-01
(PID.TID 0000.0001) %MON ad_dynstat_adwvel_mean       =   2.8798265037073E-04
(PID.TID 0000.0001) %MON ad_dynstat_adwvel_sd         =   2.5954173719421E-02
(PID.TID 0000.0001) %MON ad_dynstat_adwvel_del2       =   1.0939765899739E-03
(PID.TID 0000.0001) %MON ad_dynstat_adtheta_max       =   4.0248587350182E-03
(PID.TID 0000.0001) %MON ad_dynstat_adtheta_min       =  -4.1942330119732E-03
(PID.TID 0000.0001) %MON ad_dynstat_adtheta_mean      =   5.4080830321162E-07
(PID.TID 0000.0001) %MON ad_dynstat_adtheta_sd        =   1.7027842478014E-04
(PID.TID 0000.0001) %MON ad_dynstat_adtheta_del2      =   9.3146086164843E-06
(PID.TID 0000.0001) %MON ad_dynstat_adsalt_max        =   1.8610214016938E-02
(PID.TID 0000.0001) %MON ad_dynstat_adsalt_min        =  -1.7349201858059E-02
(PID.TID 0000.0001) %MON ad_dynstat_adsalt_mean       =  -2.1205684505887E-06
(PID.TID 0000.0001) %MON ad_dynstat_adsalt_sd         =   7.9014586632844E-04
(PID.TID 0000.0001) %MON ad_dynstat_adsalt_del2       =   4.3601725963398E-05
(PID.TID 0000.0001) %MON ad_dynstat_adsst_max         =   1.6130849822278E-04
(PID.TID 0000.0001) %MON ad_dynstat_adsst_min         =  -1.5216550535397E-04
(PID.TID 0000.0001) %MON ad_dynstat_adsst_mean        =   8.5463794443589E-08
(PID.TID 0000.0001) %MON ad_dynstat_adsst_sd          =   7.5061797037658E-06
(PID.TID 0000.0001) %MON ad_dynstat_adsst_del2        =   5.9151730334133E-07
(PID.TID 0000.0001) %MON ad_dynstat_adsss_max         =   4.4256481753649E-04
(PID.TID 0000.0001) %MON ad_dynstat_adsss_min         =  -6.1679214554294E-04
(PID.TID 0000.0001) %MON ad_dynstat_adsss_mean        =  -6.4910091809153E-07
(PID.TID 0000.0001) %MON ad_dynstat_adsss_sd          =   2.5132734178685E-05
(PID.TID 0000.0001) %MON ad_dynstat_adsss_del2        =   2.2643405230498E-06
(PID.TID 0000.0001) %MON ad_extforcing_adqnet_max     =   0.0000000000000E+00
(PID.TID 0000.0001) %MON ad_extforcing_adqnet_min     =   0.0000000000000E+00
(PID.TID 0000.0001) %MON ad_extforcing_adqnet_mean    =   0.0000000000000E+00
(PID.TID 0000.0001) %MON ad_extforcing_adqnet_sd      =   0.0000000000000E+00
(PID.TID 0000.0001) %MON ad_extforcing_adqnet_del2    =   0.0000000000000E+00
(PID.TID 0000.0001) %MON ad_extforcing_adempmr_max    =   1.3304271672674E+03
(PID.TID 0000.0001) %MON ad_extforcing_adempmr_min    =  -1.4635925053560E+03
(PID.TID 0000.0001) %MON ad_extforcing_adempmr_mean   =   6.4507451379215E-01
(PID.TID 0000.0001) %MON ad_extforcing_adempmr_sd     =   8.3606059243181E+01
(PID.TID 0000.0001) %MON ad_extforcing_adempmr_del2   =   7.6054589556141E+00
(PID.TID 0000.0001) %MON ad_extforcing_adfu_max       =   0.0000000000000E+00
(PID.TID 0000.0001) %MON ad_extforcing_adfu_min       =   0.0000000000000E+00
(PID.TID 0000.0001) %MON ad_extforcing_adfu_mean      =   0.0000000000000E+00
(PID.TID 0000.0001) %MON ad_extforcing_adfu_sd        =   0.0000000000000E+00
(PID.TID 0000.0001) %MON ad_extforcing_adfu_del2      =   0.0000000000000E+00
(PID.TID 0000.0001) %MON ad_extforcing_adfv_max       =   0.0000000000000E+00
(PID.TID 0000.0001) %MON ad_extforcing_adfv_min       =   0.0000000000000E+00
(PID.TID 0000.0001) %MON ad_extforcing_adfv_mean      =   0.0000000000000E+00
(PID.TID 0000.0001) %MON ad_extforcing_adfv_sd        =   0.0000000000000E+00
(PID.TID 0000.0001) %MON ad_extforcing_adfv_del2      =   0.0000000000000E+00
(PID.TID 0000.0001) %MON ad_advcfl_aduvel_max         =   1.1359547436056E-03
(PID.TID 0000.0001) %MON ad_advcfl_advvel_max         =   2.7043482506361E-03
(PID.TID 0000.0001) %MON ad_advcfl_adwvel_max         =   3.5543696477674E+02
(PID.TID 0000.0001) %MON ad_advcfl_adW_hf_max         =   5.0179336203776E+02
(PID.TID 0000.0001) // =======================================================
(PID.TID 0000.0001) // End MONITOR dynamic field statistics
(PID.TID 0000.0001) // =======================================================
 cg2d: Sum(rhs),rhsMax =   5.51719780972348E-12  3.38525628015093E-08
(PID.TID 0000.0001) // =======================================================
(PID.TID 0000.0001) // Begin MONITOR dynamic field statistics
(PID.TID 0000.0001) // =======================================================
(PID.TID 0000.0001) %MON ad_time_tsnumber             =                    41
(PID.TID 0000.0001) %MON ad_time_secondsf             =   1.7712000000000E+06
(PID.TID 0000.0001) %MON ad_dynstat_adeta_max         =   1.1491850391408E-03
(PID.TID 0000.0001) %MON ad_dynstat_adeta_min         =  -3.8238241030653E-03
(PID.TID 0000.0001) %MON ad_dynstat_adeta_mean        =  -9.6700696566134E-07
(PID.TID 0000.0001) %MON ad_dynstat_adeta_sd          =   2.7039822741408E-04
(PID.TID 0000.0001) %MON ad_dynstat_adeta_del2        =   2.5182724048229E-05
(PID.TID 0000.0001) %MON ad_dynstat_aduvel_max        =   5.5860046390739E-03
(PID.TID 0000.0001) %MON ad_dynstat_aduvel_min        =  -1.0057915657968E-02
(PID.TID 0000.0001) %MON ad_dynstat_aduvel_mean       =   5.7877947257180E-05
(PID.TID 0000.0001) %MON ad_dynstat_aduvel_sd         =   6.0232127269065E-04
(PID.TID 0000.0001) %MON ad_dynstat_aduvel_del2       =   3.6648905899828E-05
(PID.TID 0000.0001) %MON ad_dynstat_advvel_max        =   1.9104383244204E-02
(PID.TID 0000.0001) %MON ad_dynstat_advvel_min        =  -2.5833652153234E-02
(PID.TID 0000.0001) %MON ad_dynstat_advvel_mean       =  -3.9662059524792E-05
(PID.TID 0000.0001) %MON ad_dynstat_advvel_sd         =   1.4381276907524E-03
(PID.TID 0000.0001) %MON ad_dynstat_advvel_del2       =   1.0757587804317E-04
(PID.TID 0000.0001) %MON ad_dynstat_adwvel_max        =   1.7165133151815E+00
(PID.TID 0000.0001) %MON ad_dynstat_adwvel_min        =  -9.2959290426893E-01
(PID.TID 0000.0001) %MON ad_dynstat_adwvel_mean       =   2.8250646370623E-04
(PID.TID 0000.0001) %MON ad_dynstat_adwvel_sd         =   2.5706804702459E-02
(PID.TID 0000.0001) %MON ad_dynstat_adwvel_del2       =   1.0872059689291E-03
(PID.TID 0000.0001) %MON ad_dynstat_adtheta_max       =   3.9505934543044E-03
(PID.TID 0000.0001) %MON ad_dynstat_adtheta_min       =  -4.1247887865007E-03
(PID.TID 0000.0001) %MON ad_dynstat_adtheta_mean      =   5.4759845057744E-07
(PID.TID 0000.0001) %MON ad_dynstat_adtheta_sd        =   1.6763655278311E-04
(PID.TID 0000.0001) %MON ad_dynstat_adtheta_del2      =   9.1493470590235E-06
(PID.TID 0000.0001) %MON ad_dynstat_adsalt_max        =   1.8077195238831E-02
(PID.TID 0000.0001) %MON ad_dynstat_adsalt_min        =  -1.7022732449365E-02
(PID.TID 0000.0001) %MON ad_dynstat_adsalt_mean       =  -2.1147257901993E-06
(PID.TID 0000.0001) %MON ad_dynstat_adsalt_sd         =   7.7771625536073E-04
(PID.TID 0000.0001) %MON ad_dynstat_adsalt_del2       =   4.2735214763424E-05
(PID.TID 0000.0001) %MON ad_dynstat_adsst_max         =   1.5697019435092E-04
(PID.TID 0000.0001) %MON ad_dynstat_adsst_min         =  -1.4894863513369E-04
(PID.TID 0000.0001) %MON ad_dynstat_adsst_mean        =   1.0172550178792E-07
(PID.TID 0000.0001) %MON ad_dynstat_adsst_sd          =   7.3205447425365E-06
(PID.TID 0000.0001) %MON ad_dynstat_adsst_del2        =   5.8428334989036E-07
(PID.TID 0000.0001) %MON ad_dynstat_adsss_max         =   4.3459484126510E-04
(PID.TID 0000.0001) %MON ad_dynstat_adsss_min         =  -6.0412119447259E-04
(PID.TID 0000.0001) %MON ad_dynstat_adsss_mean        =  -6.7289863397417E-07
(PID.TID 0000.0001) %MON ad_dynstat_adsss_sd          =   2.4618482696496E-05
(PID.TID 0000.0001) %MON ad_dynstat_adsss_del2        =   2.2252382547700E-06
(PID.TID 0000.0001) %MON ad_extforcing_adqnet_max     =   0.0000000000000E+00
(PID.TID 0000.0001) %MON ad_extforcing_adqnet_min     =   0.0000000000000E+00
(PID.TID 0000.0001) %MON ad_extforcing_adqnet_mean    =   0.0000000000000E+00
(PID.TID 0000.0001) %MON ad_extforcing_adqnet_sd      =   0.0000000000000E+00
(PID.TID 0000.0001) %MON ad_extforcing_adqnet_del2    =   0.0000000000000E+00
(PID.TID 0000.0001) %MON ad_extforcing_adempmr_max    =   1.3491186134892E+03
(PID.TID 0000.0001) %MON ad_extforcing_adempmr_min    =  -1.4857878417142E+03
(PID.TID 0000.0001) %MON ad_extforcing_adempmr_mean   =   6.2404474381409E-01
(PID.TID 0000.0001) %MON ad_extforcing_adempmr_sd     =   8.4197918079811E+01
(PID.TID 0000.0001) %MON ad_extforcing_adempmr_del2   =   7.6500904502019E+00
(PID.TID 0000.0001) %MON ad_extforcing_adfu_max       =   0.0000000000000E+00
(PID.TID 0000.0001) %MON ad_extforcing_adfu_min       =   0.0000000000000E+00
(PID.TID 0000.0001) %MON ad_extforcing_adfu_mean      =   0.0000000000000E+00
(PID.TID 0000.0001) %MON ad_extforcing_adfu_sd        =   0.0000000000000E+00
(PID.TID 0000.0001) %MON ad_extforcing_adfu_del2      =   0.0000000000000E+00
(PID.TID 0000.0001) %MON ad_extforcing_adfv_max       =   0.0000000000000E+00
(PID.TID 0000.0001) %MON ad_extforcing_adfv_min       =   0.0000000000000E+00
(PID.TID 0000.0001) %MON ad_extforcing_adfv_mean      =   0.0000000000000E+00
(PID.TID 0000.0001) %MON ad_extforcing_adfv_sd        =   0.0000000000000E+00
(PID.TID 0000.0001) %MON ad_extforcing_adfv_del2      =   0.0000000000000E+00
(PID.TID 0000.0001) %MON ad_advcfl_aduvel_max         =   1.1281953706152E-03
(PID.TID 0000.0001) %MON ad_advcfl_advvel_max         =   2.5095321457025E-03
(PID.TID 0000.0001) %MON ad_advcfl_adwvel_max         =   3.4905094499074E+02
(PID.TID 0000.0001) %MON ad_advcfl_adW_hf_max         =   4.9277780469281E+02
(PID.TID 0000.0001) // =======================================================
(PID.TID 0000.0001) // End MONITOR dynamic field statistics
(PID.TID 0000.0001) // =======================================================
 cg2d: Sum(rhs),rhsMax =   5.56857338018801E-12  3.32045714336433E-08
 myIter=  40
 ph-mnc in addummy param  T
 ph-mnc in addummy myiter  40
(PID.TID 0000.0001) // =======================================================
(PID.TID 0000.0001) // Begin MONITOR dynamic field statistics
(PID.TID 0000.0001) // =======================================================
(PID.TID 0000.0001) %MON ad_time_tsnumber             =                    40
(PID.TID 0000.0001) %MON ad_time_secondsf             =   1.7280000000000E+06
(PID.TID 0000.0001) %MON ad_dynstat_adeta_max         =   1.0481324987907E-03
(PID.TID 0000.0001) %MON ad_dynstat_adeta_min         =  -3.9686867880353E-03
(PID.TID 0000.0001) %MON ad_dynstat_adeta_mean        =  -1.2786239888204E-06
(PID.TID 0000.0001) %MON ad_dynstat_adeta_sd          =   2.6867113606392E-04
(PID.TID 0000.0001) %MON ad_dynstat_adeta_del2        =   2.5371686854619E-05
(PID.TID 0000.0001) %MON ad_dynstat_aduvel_max        =   5.5890855004885E-03
(PID.TID 0000.0001) %MON ad_dynstat_aduvel_min        =  -9.9235566226538E-03
(PID.TID 0000.0001) %MON ad_dynstat_aduvel_mean       =   5.8537320170101E-05
(PID.TID 0000.0001) %MON ad_dynstat_aduvel_sd         =   6.1686697769697E-04
(PID.TID 0000.0001) %MON ad_dynstat_aduvel_del2       =   3.4771475886711E-05
(PID.TID 0000.0001) %MON ad_dynstat_advvel_max        =   1.8024525375991E-02
(PID.TID 0000.0001) %MON ad_dynstat_advvel_min        =  -2.3658732380649E-02
(PID.TID 0000.0001) %MON ad_dynstat_advvel_mean       =  -4.3785123584520E-05
(PID.TID 0000.0001) %MON ad_dynstat_advvel_sd         =   1.3754012320337E-03
(PID.TID 0000.0001) %MON ad_dynstat_advvel_del2       =   1.0377462778192E-04
(PID.TID 0000.0001) %MON ad_dynstat_adwvel_max        =   1.6872624077656E+00
(PID.TID 0000.0001) %MON ad_dynstat_adwvel_min        =  -9.1103218137243E-01
(PID.TID 0000.0001) %MON ad_dynstat_adwvel_mean       =   2.7678752628727E-04
(PID.TID 0000.0001) %MON ad_dynstat_adwvel_sd         =   2.5505052334942E-02
(PID.TID 0000.0001) %MON ad_dynstat_adwvel_del2       =   1.1006838314794E-03
(PID.TID 0000.0001) %MON ad_dynstat_adtheta_max       =   3.8789553068364E-03
(PID.TID 0000.0001) %MON ad_dynstat_adtheta_min       =  -4.0559873335226E-03
(PID.TID 0000.0001) %MON ad_dynstat_adtheta_mean      =   5.0202726053246E-07
(PID.TID 0000.0001) %MON ad_dynstat_adtheta_sd        =   1.6521940906850E-04
(PID.TID 0000.0001) %MON ad_dynstat_adtheta_del2      =   9.0612924210503E-06
(PID.TID 0000.0001) %MON ad_dynstat_adsalt_max        =   1.7542721313762E-02
(PID.TID 0000.0001) %MON ad_dynstat_adsalt_min        =  -1.6707666644280E-02
(PID.TID 0000.0001) %MON ad_dynstat_adsalt_mean       =  -1.8426064819805E-06
(PID.TID 0000.0001) %MON ad_dynstat_adsalt_sd         =   7.6633852561044E-04
(PID.TID 0000.0001) %MON ad_dynstat_adsalt_del2       =   4.2140165953187E-05
(PID.TID 0000.0001) %MON ad_dynstat_adsst_max         =   1.5247338571290E-04
(PID.TID 0000.0001) %MON ad_dynstat_adsst_min         =  -1.4579793425047E-04
(PID.TID 0000.0001) %MON ad_dynstat_adsst_mean        =   9.5621585559733E-08
(PID.TID 0000.0001) %MON ad_dynstat_adsst_sd          =   7.1357397284172E-06
(PID.TID 0000.0001) %MON ad_dynstat_adsst_del2        =   5.5892125608507E-07
(PID.TID 0000.0001) %MON ad_dynstat_adsss_max         =   4.2679869241877E-04
(PID.TID 0000.0001) %MON ad_dynstat_adsss_min         =  -5.9068476576462E-04
(PID.TID 0000.0001) %MON ad_dynstat_adsss_mean        =  -6.3628037442633E-07
(PID.TID 0000.0001) %MON ad_dynstat_adsss_sd          =   2.4118484448504E-05
(PID.TID 0000.0001) %MON ad_dynstat_adsss_del2        =   2.0944576587349E-06
(PID.TID 0000.0001) %MON ad_extforcing_adqnet_max     =   0.0000000000000E+00
(PID.TID 0000.0001) %MON ad_extforcing_adqnet_min     =   0.0000000000000E+00
(PID.TID 0000.0001) %MON ad_extforcing_adqnet_mean    =   0.0000000000000E+00
(PID.TID 0000.0001) %MON ad_extforcing_adqnet_sd      =   0.0000000000000E+00
(PID.TID 0000.0001) %MON ad_extforcing_adqnet_del2    =   0.0000000000000E+00
(PID.TID 0000.0001) %MON ad_extforcing_adempmr_max    =   1.3674508519051E+03
(PID.TID 0000.0001) %MON ad_extforcing_adempmr_min    =  -1.5074933388243E+03
(PID.TID 0000.0001) %MON ad_extforcing_adempmr_mean   =   6.0275622626531E-01
(PID.TID 0000.0001) %MON ad_extforcing_adempmr_sd     =   8.4760242722201E+01
(PID.TID 0000.0001) %MON ad_extforcing_adempmr_del2   =   7.6910378575629E+00
(PID.TID 0000.0001) %MON ad_extforcing_adfu_max       =   0.0000000000000E+00
(PID.TID 0000.0001) %MON ad_extforcing_adfu_min       =   0.0000000000000E+00
(PID.TID 0000.0001) %MON ad_extforcing_adfu_mean      =   0.0000000000000E+00
(PID.TID 0000.0001) %MON ad_extforcing_adfu_sd        =   0.0000000000000E+00
(PID.TID 0000.0001) %MON ad_extforcing_adfu_del2      =   0.0000000000000E+00
(PID.TID 0000.0001) %MON ad_extforcing_adfv_max       =   0.0000000000000E+00
(PID.TID 0000.0001) %MON ad_extforcing_adfv_min       =   0.0000000000000E+00
(PID.TID 0000.0001) %MON ad_extforcing_adfv_mean      =   0.0000000000000E+00
(PID.TID 0000.0001) %MON ad_extforcing_adfv_sd        =   0.0000000000000E+00
(PID.TID 0000.0001) %MON ad_extforcing_adfv_del2      =   0.0000000000000E+00
(PID.TID 0000.0001) %MON ad_advcfl_aduvel_max         =   1.1131243313665E-03
(PID.TID 0000.0001) %MON ad_advcfl_advvel_max         =   2.2982561305556E-03
(PID.TID 0000.0001) %MON ad_advcfl_adwvel_max         =   3.4271824792514E+02
(PID.TID 0000.0001) %MON ad_advcfl_adW_hf_max         =   4.8383752648255E+02
(PID.TID 0000.0001) // =======================================================
(PID.TID 0000.0001) // End MONITOR dynamic field statistics
(PID.TID 0000.0001) // =======================================================
 cg2d: Sum(rhs),rhsMax =   5.60978347108332E-12  3.26618763856084E-08
time,SST,SSS,fu,fv,Q,E-P,i0,i1,a,b =   1.5552E+06  8.0940E-01  3.4685E+01 -3.3513E-02 -5.3295E-02  2.6324E+02  0.0000E+00     1     2  1.0000E-01  9.0000E-01
time,fu0,fu1,fu =   1.5552E+06 -3.5633E-02 -1.4435E-02 -3.3513E-02  1.000000000000000E-01  9.000000000000000E-01
 cg2d: Sum(rhs),rhsMax =  -1.08107967022875E-12  8.84823931929408E+00
time,SST,SSS,fu,fv,Q,E-P,i0,i1,a,b =   1.5984E+06  7.8456E-01  3.4680E+01 -3.3160E-02 -5.2634E-02  2.6282E+02  0.0000E+00     1     2  1.1667E-01  8.8333E-01
time,fu0,fu1,fu =   1.5984E+06 -3.5633E-02 -1.4435E-02 -3.3160E-02  1.166666666666667E-01  8.833333333333333E-01
 cg2d: Sum(rhs),rhsMax =  -1.24318610961183E-12  8.53412765044123E+00
time,SST,SSS,fu,fv,Q,E-P,i0,i1,a,b =   1.6416E+06  7.5972E-01  3.4675E+01 -3.2807E-02 -5.1974E-02  2.6240E+02  0.0000E+00     1     2  1.3333E-01  8.6667E-01
time,fu0,fu1,fu =   1.6416E+06 -3.5633E-02 -1.4435E-02 -3.2807E-02  1.333333333333333E-01  8.666666666666667E-01
 cg2d: Sum(rhs),rhsMax =  -4.49924819623249E-13  8.14100424312469E+00
(PID.TID 0000.0001) // =======================================================
(PID.TID 0000.0001) // Begin MONITOR dynamic field statistics
(PID.TID 0000.0001) // =======================================================
(PID.TID 0000.0001) %MON ad_time_tsnumber             =                    39
(PID.TID 0000.0001) %MON ad_time_secondsf             =   1.6848000000000E+06
(PID.TID 0000.0001) %MON ad_dynstat_adeta_max         =   9.6069263956752E-04
(PID.TID 0000.0001) %MON ad_dynstat_adeta_min         =  -4.1132690820415E-03
(PID.TID 0000.0001) %MON ad_dynstat_adeta_mean        =  -1.6256855178459E-06
(PID.TID 0000.0001) %MON ad_dynstat_adeta_sd          =   2.6694753688741E-04
(PID.TID 0000.0001) %MON ad_dynstat_adeta_del2        =   2.5562413682086E-05
(PID.TID 0000.0001) %MON ad_dynstat_aduvel_max        =   5.5577031968300E-03
(PID.TID 0000.0001) %MON ad_dynstat_aduvel_min        =  -9.7259429930039E-03
(PID.TID 0000.0001) %MON ad_dynstat_aduvel_mean       =   6.5614946758265E-05
(PID.TID 0000.0001) %MON ad_dynstat_aduvel_sd         =   6.3339855432084E-04
(PID.TID 0000.0001) %MON ad_dynstat_aduvel_del2       =   3.7388828204186E-05
(PID.TID 0000.0001) %MON ad_dynstat_advvel_max        =   1.6858573881279E-02
(PID.TID 0000.0001) %MON ad_dynstat_advvel_min        =  -2.1333554704781E-02
(PID.TID 0000.0001) %MON ad_dynstat_advvel_mean       =  -4.8525335832708E-05
(PID.TID 0000.0001) %MON ad_dynstat_advvel_sd         =   1.3095866936599E-03
(PID.TID 0000.0001) %MON ad_dynstat_advvel_del2       =   9.9305805876135E-05
(PID.TID 0000.0001) %MON ad_dynstat_adwvel_max        =   1.6582394091818E+00
(PID.TID 0000.0001) %MON ad_dynstat_adwvel_min        =  -8.9320696713333E-01
(PID.TID 0000.0001) %MON ad_dynstat_adwvel_mean       =   2.7085795063956E-04
(PID.TID 0000.0001) %MON ad_dynstat_adwvel_sd         =   2.5340699005391E-02
(PID.TID 0000.0001) %MON ad_dynstat_adwvel_del2       =   1.1267431724744E-03
(PID.TID 0000.0001) %MON ad_dynstat_adtheta_max       =   3.8105413893310E-03
(PID.TID 0000.0001) %MON ad_dynstat_adtheta_min       =  -3.9881829197522E-03
(PID.TID 0000.0001) %MON ad_dynstat_adtheta_mean      =   5.6132711285836E-07
(PID.TID 0000.0001) %MON ad_dynstat_adtheta_sd        =   1.6303267790612E-04
(PID.TID 0000.0001) %MON ad_dynstat_adtheta_del2      =   9.0706844525068E-06
(PID.TID 0000.0001) %MON ad_dynstat_adsalt_max        =   1.7012845387121E-02
(PID.TID 0000.0001) %MON ad_dynstat_adsalt_min        =  -1.6410022565988E-02
(PID.TID 0000.0001) %MON ad_dynstat_adsalt_mean       =  -2.1123185777363E-06
(PID.TID 0000.0001) %MON ad_dynstat_adsalt_sd         =   7.5605710771928E-04
(PID.TID 0000.0001) %MON ad_dynstat_adsalt_del2       =   4.2146357444658E-05
(PID.TID 0000.0001) %MON ad_dynstat_adsst_max         =   1.4786753217401E-04
(PID.TID 0000.0001) %MON ad_dynstat_adsst_min         =  -1.4272517192933E-04
(PID.TID 0000.0001) %MON ad_dynstat_adsst_mean        =   1.2548143848061E-07
(PID.TID 0000.0001) %MON ad_dynstat_adsst_sd          =   6.9449153396265E-06
(PID.TID 0000.0001) %MON ad_dynstat_adsst_del2        =   5.7346219687554E-07
(PID.TID 0000.0001) %MON ad_dynstat_adsss_max         =   4.1920970513045E-04
(PID.TID 0000.0001) %MON ad_dynstat_adsss_min         =  -5.7660232264050E-04
(PID.TID 0000.0001) %MON ad_dynstat_adsss_mean        =  -7.0139367537223E-07
(PID.TID 0000.0001) %MON ad_dynstat_adsss_sd          =   2.3599742427368E-05
(PID.TID 0000.0001) %MON ad_dynstat_adsss_del2        =   2.1829079539668E-06
(PID.TID 0000.0001) %MON ad_extforcing_adqnet_max     =   0.0000000000000E+00
(PID.TID 0000.0001) %MON ad_extforcing_adqnet_min     =   0.0000000000000E+00
(PID.TID 0000.0001) %MON ad_extforcing_adqnet_mean    =   0.0000000000000E+00
(PID.TID 0000.0001) %MON ad_extforcing_adqnet_sd      =   0.0000000000000E+00
(PID.TID 0000.0001) %MON ad_extforcing_adqnet_del2    =   0.0000000000000E+00
(PID.TID 0000.0001) %MON ad_extforcing_adempmr_max    =   1.3854501598561E+03
(PID.TID 0000.0001) %MON ad_extforcing_adempmr_min    =  -1.5286901817508E+03
(PID.TID 0000.0001) %MON ad_extforcing_adempmr_mean   =   5.8134376743909E-01
(PID.TID 0000.0001) %MON ad_extforcing_adempmr_sd     =   8.5295390571227E+01
(PID.TID 0000.0001) %MON ad_extforcing_adempmr_del2   =   7.7284872946205E+00
(PID.TID 0000.0001) %MON ad_extforcing_adfu_max       =   0.0000000000000E+00
(PID.TID 0000.0001) %MON ad_extforcing_adfu_min       =   0.0000000000000E+00
(PID.TID 0000.0001) %MON ad_extforcing_adfu_mean      =   0.0000000000000E+00
(PID.TID 0000.0001) %MON ad_extforcing_adfu_sd        =   0.0000000000000E+00
(PID.TID 0000.0001) %MON ad_extforcing_adfu_del2      =   0.0000000000000E+00
(PID.TID 0000.0001) %MON ad_extforcing_adfv_max       =   0.0000000000000E+00
(PID.TID 0000.0001) %MON ad_extforcing_adfv_min       =   0.0000000000000E+00
(PID.TID 0000.0001) %MON ad_extforcing_adfv_mean      =   0.0000000000000E+00
(PID.TID 0000.0001) %MON ad_extforcing_adfv_sd        =   0.0000000000000E+00
(PID.TID 0000.0001) %MON ad_extforcing_adfv_del2      =   0.0000000000000E+00
(PID.TID 0000.0001) %MON ad_advcfl_aduvel_max         =   1.0909580307409E-03
(PID.TID 0000.0001) %MON ad_advcfl_advvel_max         =   2.0723837650283E-03
(PID.TID 0000.0001) %MON ad_advcfl_adwvel_max         =   3.3646810744623E+02
(PID.TID 0000.0001) %MON ad_advcfl_adW_hf_max         =   4.7501379874762E+02
(PID.TID 0000.0001) // =======================================================
(PID.TID 0000.0001) // End MONITOR dynamic field statistics
(PID.TID 0000.0001) // =======================================================
 cg2d: Sum(rhs),rhsMax =   5.66928448630932E-12  3.22390470156644E-08
(PID.TID 0000.0001) // =======================================================
(PID.TID 0000.0001) // Begin MONITOR dynamic field statistics
(PID.TID 0000.0001) // =======================================================
(PID.TID 0000.0001) %MON ad_time_tsnumber             =                    38
(PID.TID 0000.0001) %MON ad_time_secondsf             =   1.6416000000000E+06
(PID.TID 0000.0001) %MON ad_dynstat_adeta_max         =   9.5924662560057E-04
(PID.TID 0000.0001) %MON ad_dynstat_adeta_min         =  -4.2536548562126E-03
(PID.TID 0000.0001) %MON ad_dynstat_adeta_mean        =  -1.8717468401854E-06
(PID.TID 0000.0001) %MON ad_dynstat_adeta_sd          =   2.6572823847827E-04
(PID.TID 0000.0001) %MON ad_dynstat_adeta_del2        =   2.5787118283316E-05
(PID.TID 0000.0001) %MON ad_dynstat_aduvel_max        =   5.9556348922201E-03
(PID.TID 0000.0001) %MON ad_dynstat_aduvel_min        =  -9.4667702386679E-03
(PID.TID 0000.0001) %MON ad_dynstat_aduvel_mean       =   6.9109384271934E-05
(PID.TID 0000.0001) %MON ad_dynstat_aduvel_sd         =   6.4701235743351E-04
(PID.TID 0000.0001) %MON ad_dynstat_aduvel_del2       =   3.7634368620773E-05
(PID.TID 0000.0001) %MON ad_dynstat_advvel_max        =   1.5616603486708E-02
(PID.TID 0000.0001) %MON ad_dynstat_advvel_min        =  -1.8878056586961E-02
(PID.TID 0000.0001) %MON ad_dynstat_advvel_mean       =  -5.3767143822207E-05
(PID.TID 0000.0001) %MON ad_dynstat_advvel_sd         =   1.2422185254250E-03
(PID.TID 0000.0001) %MON ad_dynstat_advvel_del2       =   9.4266196732472E-05
(PID.TID 0000.0001) %MON ad_dynstat_adwvel_max        =   1.6295935979803E+00
(PID.TID 0000.0001) %MON ad_dynstat_adwvel_min        =  -8.7627084639679E-01
(PID.TID 0000.0001) %MON ad_dynstat_adwvel_mean       =   2.6475617485312E-04
(PID.TID 0000.0001) %MON ad_dynstat_adwvel_sd         =   2.5203663281340E-02
(PID.TID 0000.0001) %MON ad_dynstat_adwvel_del2       =   1.1608655806135E-03
(PID.TID 0000.0001) %MON ad_dynstat_adtheta_max       =   3.7459077002101E-03
(PID.TID 0000.0001) %MON ad_dynstat_adtheta_min       =  -3.9217725591209E-03
(PID.TID 0000.0001) %MON ad_dynstat_adtheta_mean      =   5.6808237824154E-07
(PID.TID 0000.0001) %MON ad_dynstat_adtheta_sd        =   1.6109612046229E-04
(PID.TID 0000.0001) %MON ad_dynstat_adtheta_del2      =   9.1055976985955E-06
(PID.TID 0000.0001) %MON ad_dynstat_adsalt_max        =   1.6493537403872E-02
(PID.TID 0000.0001) %MON ad_dynstat_adsalt_min        =  -1.6194385870156E-02
(PID.TID 0000.0001) %MON ad_dynstat_adsalt_mean       =  -2.1159673602305E-06
(PID.TID 0000.0001) %MON ad_dynstat_adsalt_sd         =   7.4698620343584E-04
(PID.TID 0000.0001) %MON ad_dynstat_adsalt_del2       =   4.2197561517824E-05
(PID.TID 0000.0001) %MON ad_dynstat_adsst_max         =   1.4318743838635E-04
(PID.TID 0000.0001) %MON ad_dynstat_adsst_min         =  -1.3975238801735E-04
(PID.TID 0000.0001) %MON ad_dynstat_adsst_mean        =   1.3211494446575E-07
(PID.TID 0000.0001) %MON ad_dynstat_adsst_sd          =   6.7670404936639E-06
(PID.TID 0000.0001) %MON ad_dynstat_adsst_del2        =   5.7042989550453E-07
(PID.TID 0000.0001) %MON ad_dynstat_adsss_max         =   4.1188898082685E-04
(PID.TID 0000.0001) %MON ad_dynstat_adsss_min         =  -5.6196542183971E-04
(PID.TID 0000.0001) %MON ad_dynstat_adsss_mean        =  -7.0402640157195E-07
(PID.TID 0000.0001) %MON ad_dynstat_adsss_sd          =   2.3118362860886E-05
(PID.TID 0000.0001) %MON ad_dynstat_adsss_del2        =   2.1735349212678E-06
(PID.TID 0000.0001) %MON ad_extforcing_adqnet_max     =   0.0000000000000E+00
(PID.TID 0000.0001) %MON ad_extforcing_adqnet_min     =   0.0000000000000E+00
(PID.TID 0000.0001) %MON ad_extforcing_adqnet_mean    =   0.0000000000000E+00
(PID.TID 0000.0001) %MON ad_extforcing_adqnet_sd      =   0.0000000000000E+00
(PID.TID 0000.0001) %MON ad_extforcing_adqnet_del2    =   0.0000000000000E+00
(PID.TID 0000.0001) %MON ad_extforcing_adempmr_max    =   1.4031453085376E+03
(PID.TID 0000.0001) %MON ad_extforcing_adempmr_min    =  -1.5493604612515E+03
(PID.TID 0000.0001) %MON ad_extforcing_adempmr_mean   =   5.5994154318505E-01
(PID.TID 0000.0001) %MON ad_extforcing_adempmr_sd     =   8.5806027931878E+01
(PID.TID 0000.0001) %MON ad_extforcing_adempmr_del2   =   7.7627610715247E+00
(PID.TID 0000.0001) %MON ad_extforcing_adfu_max       =   0.0000000000000E+00
(PID.TID 0000.0001) %MON ad_extforcing_adfu_min       =   0.0000000000000E+00
(PID.TID 0000.0001) %MON ad_extforcing_adfu_mean      =   0.0000000000000E+00
(PID.TID 0000.0001) %MON ad_extforcing_adfu_sd        =   0.0000000000000E+00
(PID.TID 0000.0001) %MON ad_extforcing_adfu_del2      =   0.0000000000000E+00
(PID.TID 0000.0001) %MON ad_extforcing_adfv_max       =   0.0000000000000E+00
(PID.TID 0000.0001) %MON ad_extforcing_adfv_min       =   0.0000000000000E+00
(PID.TID 0000.0001) %MON ad_extforcing_adfv_mean      =   0.0000000000000E+00
(PID.TID 0000.0001) %MON ad_extforcing_adfv_sd        =   0.0000000000000E+00
(PID.TID 0000.0001) %MON ad_extforcing_adfv_del2      =   0.0000000000000E+00
(PID.TID 0000.0001) %MON ad_advcfl_aduvel_max         =   1.0618286265727E-03
(PID.TID 0000.0001) %MON ad_advcfl_advvel_max         =   1.8338518136097E-03
(PID.TID 0000.0001) %MON ad_advcfl_adwvel_max         =   3.3033355922074E+02
(PID.TID 0000.0001) %MON ad_advcfl_adW_hf_max         =   4.6635326007634E+02
(PID.TID 0000.0001) // =======================================================
(PID.TID 0000.0001) // End MONITOR dynamic field statistics
(PID.TID 0000.0001) // =======================================================
 cg2d: Sum(rhs),rhsMax =   5.64849556017322E-12  3.19386337557825E-08
(PID.TID 0000.0001) // =======================================================
(PID.TID 0000.0001) // Begin MONITOR dynamic field statistics
(PID.TID 0000.0001) // =======================================================
(PID.TID 0000.0001) %MON ad_time_tsnumber             =                    37
(PID.TID 0000.0001) %MON ad_time_secondsf             =   1.5984000000000E+06
(PID.TID 0000.0001) %MON ad_dynstat_adeta_max         =   1.0543140672497E-03
(PID.TID 0000.0001) %MON ad_dynstat_adeta_min         =  -4.3857120332802E-03
(PID.TID 0000.0001) %MON ad_dynstat_adeta_mean        =  -2.0597908192103E-06
(PID.TID 0000.0001) %MON ad_dynstat_adeta_sd          =   2.6488685945589E-04
(PID.TID 0000.0001) %MON ad_dynstat_adeta_del2        =   2.6084885042402E-05
(PID.TID 0000.0001) %MON ad_dynstat_aduvel_max        =   6.3237689532415E-03
(PID.TID 0000.0001) %MON ad_dynstat_aduvel_min        =  -9.2797050879761E-03
(PID.TID 0000.0001) %MON ad_dynstat_aduvel_mean       =   7.2422160450365E-05
(PID.TID 0000.0001) %MON ad_dynstat_aduvel_sd         =   6.5897966551482E-04
(PID.TID 0000.0001) %MON ad_dynstat_aduvel_del2       =   3.7783219145968E-05
(PID.TID 0000.0001) %MON ad_dynstat_advvel_max        =   1.4306643528900E-02
(PID.TID 0000.0001) %MON ad_dynstat_advvel_min        =  -1.6312917372934E-02
(PID.TID 0000.0001) %MON ad_dynstat_advvel_mean       =  -5.9489984957682E-05
(PID.TID 0000.0001) %MON ad_dynstat_advvel_sd         =   1.1751056209149E-03
(PID.TID 0000.0001) %MON ad_dynstat_advvel_del2       =   8.8802716220413E-05
(PID.TID 0000.0001) %MON ad_dynstat_adwvel_max        =   1.6015079140150E+00
(PID.TID 0000.0001) %MON ad_dynstat_adwvel_min        =  -8.6036750242452E-01
(PID.TID 0000.0001) %MON ad_dynstat_adwvel_mean       =   2.5848669558231E-04
(PID.TID 0000.0001) %MON ad_dynstat_adwvel_sd         =   2.5082837106063E-02
(PID.TID 0000.0001) %MON ad_dynstat_adwvel_del2       =   1.2002648365151E-03
(PID.TID 0000.0001) %MON ad_dynstat_adtheta_max       =   3.6855622495230E-03
(PID.TID 0000.0001) %MON ad_dynstat_adtheta_min       =  -3.8572152029553E-03
(PID.TID 0000.0001) %MON ad_dynstat_adtheta_mean      =   5.7468398004180E-07
(PID.TID 0000.0001) %MON ad_dynstat_adtheta_sd        =   1.5939753822925E-04
(PID.TID 0000.0001) %MON ad_dynstat_adtheta_del2      =   9.1637942378633E-06
(PID.TID 0000.0001) %MON ad_dynstat_adsalt_max        =   1.5990588397973E-02
(PID.TID 0000.0001) %MON ad_dynstat_adsalt_min        =  -1.5996319466020E-02
(PID.TID 0000.0001) %MON ad_dynstat_adsalt_mean       =  -2.1232014986739E-06
(PID.TID 0000.0001) %MON ad_dynstat_adsalt_sd         =   7.3908441254211E-04
(PID.TID 0000.0001) %MON ad_dynstat_adsalt_del2       =   4.2369595774470E-05
(PID.TID 0000.0001) %MON ad_dynstat_adsst_max         =   1.3848463919554E-04
(PID.TID 0000.0001) %MON ad_dynstat_adsst_min         =  -1.3691639763413E-04
(PID.TID 0000.0001) %MON ad_dynstat_adsst_mean        =   1.3424773366409E-07
(PID.TID 0000.0001) %MON ad_dynstat_adsst_sd          =   6.6065190549649E-06
(PID.TID 0000.0001) %MON ad_dynstat_adsst_del2        =   5.6904639601704E-07
(PID.TID 0000.0001) %MON ad_dynstat_adsss_max         =   4.0493759859655E-04
(PID.TID 0000.0001) %MON ad_dynstat_adsss_min         =  -5.4693208461427E-04
(PID.TID 0000.0001) %MON ad_dynstat_adsss_mean        =  -6.9645785524942E-07
(PID.TID 0000.0001) %MON ad_dynstat_adsss_sd          =   2.2673581396351E-05
(PID.TID 0000.0001) %MON ad_dynstat_adsss_del2        =   2.1663607359620E-06
(PID.TID 0000.0001) %MON ad_extforcing_adqnet_max     =   0.0000000000000E+00
(PID.TID 0000.0001) %MON ad_extforcing_adqnet_min     =   0.0000000000000E+00
(PID.TID 0000.0001) %MON ad_extforcing_adqnet_mean    =   0.0000000000000E+00
(PID.TID 0000.0001) %MON ad_extforcing_adqnet_sd      =   0.0000000000000E+00
(PID.TID 0000.0001) %MON ad_extforcing_adqnet_del2    =   0.0000000000000E+00
(PID.TID 0000.0001) %MON ad_extforcing_adempmr_max    =   1.4205672424943E+03
(PID.TID 0000.0001) %MON ad_extforcing_adempmr_min    =  -1.5694875436405E+03
(PID.TID 0000.0001) %MON ad_extforcing_adempmr_mean   =   5.3875808969112E-01
(PID.TID 0000.0001) %MON ad_extforcing_adempmr_sd     =   8.6294855584487E+01
(PID.TID 0000.0001) %MON ad_extforcing_adempmr_del2   =   7.7942196049655E+00
(PID.TID 0000.0001) %MON ad_extforcing_adfu_max       =   0.0000000000000E+00
(PID.TID 0000.0001) %MON ad_extforcing_adfu_min       =   0.0000000000000E+00
(PID.TID 0000.0001) %MON ad_extforcing_adfu_mean      =   0.0000000000000E+00
(PID.TID 0000.0001) %MON ad_extforcing_adfu_sd        =   0.0000000000000E+00
(PID.TID 0000.0001) %MON ad_extforcing_adfu_del2      =   0.0000000000000E+00
(PID.TID 0000.0001) %MON ad_extforcing_adfv_max       =   0.0000000000000E+00
(PID.TID 0000.0001) %MON ad_extforcing_adfv_min       =   0.0000000000000E+00
(PID.TID 0000.0001) %MON ad_extforcing_adfv_mean      =   0.0000000000000E+00
(PID.TID 0000.0001) %MON ad_extforcing_adfv_sd        =   0.0000000000000E+00
(PID.TID 0000.0001) %MON ad_extforcing_adfv_del2      =   0.0000000000000E+00
(PID.TID 0000.0001) %MON ad_advcfl_aduvel_max         =   1.0258537296258E-03
(PID.TID 0000.0001) %MON ad_advcfl_advvel_max         =   1.5846691089105E-03
(PID.TID 0000.0001) %MON ad_advcfl_adwvel_max         =   3.2435839270645E+02
(PID.TID 0000.0001) %MON ad_advcfl_adW_hf_max         =   4.5791773087970E+02
(PID.TID 0000.0001) // =======================================================
(PID.TID 0000.0001) // End MONITOR dynamic field statistics
(PID.TID 0000.0001) // =======================================================
 cg2d: Sum(rhs),rhsMax =   5.63135649223057E-12  3.17481054966695E-08
time,SST,SSS,fu,fv,Q,E-P,i0,i1,a,b =   1.4256E+06  8.8391E-01  3.4700E+01 -3.4573E-02 -5.5276E-02  2.6451E+02  0.0000E+00     1     2  5.0000E-02  9.5000E-01
time,fu0,fu1,fu =   1.4256E+06 -3.5633E-02 -1.4435E-02 -3.4573E-02  5.000000000000000E-02  9.500000000000000E-01
 cg2d: Sum(rhs),rhsMax =  -1.28025368084650E-12  9.27184087685194E+00
time,SST,SSS,fu,fv,Q,E-P,i0,i1,a,b =   1.4688E+06  8.5907E-01  3.4695E+01 -3.4220E-02 -5.4615E-02  2.6408E+02  0.0000E+00     1     2  6.6667E-02  9.3333E-01
time,fu0,fu1,fu =   1.4688E+06 -3.5633E-02 -1.4435E-02 -3.4220E-02  6.666666666666667E-02  9.333333333333333E-01
 cg2d: Sum(rhs),rhsMax =  -9.36965782738497E-13  9.21972070819477E+00
time,SST,SSS,fu,fv,Q,E-P,i0,i1,a,b =   1.5120E+06  8.3424E-01  3.4690E+01 -3.3866E-02 -5.3955E-02  2.6366E+02  0.0000E+00     1     2  8.3333E-02  9.1667E-01
time,fu0,fu1,fu =   1.5120E+06 -3.5633E-02 -1.4435E-02 -3.3866E-02  8.333333333333333E-02  9.166666666666666E-01
 cg2d: Sum(rhs),rhsMax =  -9.08058350734819E-13  9.07797514894407E+00
(PID.TID 0000.0001) // =======================================================
(PID.TID 0000.0001) // Begin MONITOR dynamic field statistics
(PID.TID 0000.0001) // =======================================================
(PID.TID 0000.0001) %MON ad_time_tsnumber             =                    36
(PID.TID 0000.0001) %MON ad_time_secondsf             =   1.5552000000000E+06
(PID.TID 0000.0001) %MON ad_dynstat_adeta_max         =   1.1399620123074E-03
(PID.TID 0000.0001) %MON ad_dynstat_adeta_min         =  -4.5047855114483E-03
(PID.TID 0000.0001) %MON ad_dynstat_adeta_mean        =  -2.1888914766658E-06
(PID.TID 0000.0001) %MON ad_dynstat_adeta_sd          =   2.6435069033879E-04
(PID.TID 0000.0001) %MON ad_dynstat_adeta_del2        =   2.6533745965915E-05
(PID.TID 0000.0001) %MON ad_dynstat_aduvel_max        =   6.6443469031111E-03
(PID.TID 0000.0001) %MON ad_dynstat_aduvel_min        =  -9.0509086835101E-03
(PID.TID 0000.0001) %MON ad_dynstat_aduvel_mean       =   7.5607481193215E-05
(PID.TID 0000.0001) %MON ad_dynstat_aduvel_sd         =   6.6917368056549E-04
(PID.TID 0000.0001) %MON ad_dynstat_aduvel_del2       =   3.7856852036710E-05
(PID.TID 0000.0001) %MON ad_dynstat_advvel_max        =   1.2935608816819E-02
(PID.TID 0000.0001) %MON ad_dynstat_advvel_min        =  -1.3659466593733E-02
(PID.TID 0000.0001) %MON ad_dynstat_advvel_mean       =  -6.5642247118101E-05
(PID.TID 0000.0001) %MON ad_dynstat_advvel_sd         =   1.1103142131721E-03
(PID.TID 0000.0001) %MON ad_dynstat_advvel_del2       =   8.3312161222145E-05
(PID.TID 0000.0001) %MON ad_dynstat_adwvel_max        =   1.5742031154184E+00
(PID.TID 0000.0001) %MON ad_dynstat_adwvel_min        =  -8.4562915684098E-01
(PID.TID 0000.0001) %MON ad_dynstat_adwvel_mean       =   2.5210120571373E-04
(PID.TID 0000.0001) %MON ad_dynstat_adwvel_sd         =   2.4967039596512E-02
(PID.TID 0000.0001) %MON ad_dynstat_adwvel_del2       =   1.2403421197752E-03
(PID.TID 0000.0001) %MON ad_dynstat_adtheta_max       =   3.6299583500259E-03
(PID.TID 0000.0001) %MON ad_dynstat_adtheta_min       =  -3.7950280726561E-03
(PID.TID 0000.0001) %MON ad_dynstat_adtheta_mean      =   5.8102943202044E-07
(PID.TID 0000.0001) %MON ad_dynstat_adtheta_sd        =   1.5791839524335E-04
(PID.TID 0000.0001) %MON ad_dynstat_adtheta_del2      =   9.2445939667562E-06
(PID.TID 0000.0001) %MON ad_dynstat_adsalt_max        =   1.5509389793482E-02
(PID.TID 0000.0001) %MON ad_dynstat_adsalt_min        =  -1.5817553906699E-02
(PID.TID 0000.0001) %MON ad_dynstat_adsalt_mean       =  -2.1340242818555E-06
(PID.TID 0000.0001) %MON ad_dynstat_adsalt_sd         =   7.3227828984358E-04
(PID.TID 0000.0001) %MON ad_dynstat_adsalt_del2       =   4.2648937177454E-05
(PID.TID 0000.0001) %MON ad_dynstat_adsst_max         =   1.3384842315219E-04
(PID.TID 0000.0001) %MON ad_dynstat_adsst_min         =  -1.3426446122961E-04
(PID.TID 0000.0001) %MON ad_dynstat_adsst_mean        =   1.3326214907263E-07
(PID.TID 0000.0001) %MON ad_dynstat_adsst_sd          =   6.4576962501351E-06
(PID.TID 0000.0001) %MON ad_dynstat_adsst_del2        =   5.6961793236664E-07
(PID.TID 0000.0001) %MON ad_dynstat_adsss_max         =   3.9848440357474E-04
(PID.TID 0000.0001) %MON ad_dynstat_adsss_min         =  -5.3179228257093E-04
(PID.TID 0000.0001) %MON ad_dynstat_adsss_mean        =  -6.8258138625619E-07
(PID.TID 0000.0001) %MON ad_dynstat_adsss_sd          =   2.2257481743225E-05
(PID.TID 0000.0001) %MON ad_dynstat_adsss_del2        =   2.1612107251902E-06
(PID.TID 0000.0001) %MON ad_extforcing_adqnet_max     =   0.0000000000000E+00
(PID.TID 0000.0001) %MON ad_extforcing_adqnet_min     =   0.0000000000000E+00
(PID.TID 0000.0001) %MON ad_extforcing_adqnet_mean    =   0.0000000000000E+00
(PID.TID 0000.0001) %MON ad_extforcing_adqnet_sd      =   0.0000000000000E+00
(PID.TID 0000.0001) %MON ad_extforcing_adqnet_del2    =   0.0000000000000E+00
(PID.TID 0000.0001) %MON ad_extforcing_adempmr_max    =   1.4377485377885E+03
(PID.TID 0000.0001) %MON ad_extforcing_adempmr_min    =  -1.5890592271115E+03
(PID.TID 0000.0001) %MON ad_extforcing_adempmr_mean   =   5.1800863803894E-01
(PID.TID 0000.0001) %MON ad_extforcing_adempmr_sd     =   8.6764717725453E+01
(PID.TID 0000.0001) %MON ad_extforcing_adempmr_del2   =   7.8232102051322E+00
(PID.TID 0000.0001) %MON ad_extforcing_adfu_max       =   0.0000000000000E+00
(PID.TID 0000.0001) %MON ad_extforcing_adfu_min       =   0.0000000000000E+00
(PID.TID 0000.0001) %MON ad_extforcing_adfu_mean      =   0.0000000000000E+00
(PID.TID 0000.0001) %MON ad_extforcing_adfu_sd        =   0.0000000000000E+00
(PID.TID 0000.0001) %MON ad_extforcing_adfu_del2      =   0.0000000000000E+00
(PID.TID 0000.0001) %MON ad_extforcing_adfv_max       =   0.0000000000000E+00
(PID.TID 0000.0001) %MON ad_extforcing_adfv_min       =   0.0000000000000E+00
(PID.TID 0000.0001) %MON ad_extforcing_adfv_mean      =   0.0000000000000E+00
(PID.TID 0000.0001) %MON ad_extforcing_adfv_sd        =   0.0000000000000E+00
(PID.TID 0000.0001) %MON ad_extforcing_adfv_del2      =   0.0000000000000E+00
(PID.TID 0000.0001) %MON ad_advcfl_aduvel_max         =   9.8324343330839E-04
(PID.TID 0000.0001) %MON ad_advcfl_advvel_max         =   1.3269076438281E-03
(PID.TID 0000.0001) %MON ad_advcfl_adwvel_max         =   3.1859780598732E+02
(PID.TID 0000.0001) %MON ad_advcfl_adW_hf_max         =   4.4978513786445E+02
(PID.TID 0000.0001) // =======================================================
(PID.TID 0000.0001) // End MONITOR dynamic field statistics
(PID.TID 0000.0001) // =======================================================
 cg2d: Sum(rhs),rhsMax =   5.64967517213688E-12  3.16427048037871E-08
(PID.TID 0000.0001) // =======================================================
(PID.TID 0000.0001) // Begin MONITOR dynamic field statistics
(PID.TID 0000.0001) // =======================================================
(PID.TID 0000.0001) %MON ad_time_tsnumber             =                    35
(PID.TID 0000.0001) %MON ad_time_secondsf             =   1.5120000000000E+06
(PID.TID 0000.0001) %MON ad_dynstat_adeta_max         =   1.2152017928877E-03
(PID.TID 0000.0001) %MON ad_dynstat_adeta_min         =  -4.6063134963757E-03
(PID.TID 0000.0001) %MON ad_dynstat_adeta_mean        =  -2.2589091688369E-06
(PID.TID 0000.0001) %MON ad_dynstat_adeta_sd          =   2.6397608975994E-04
(PID.TID 0000.0001) %MON ad_dynstat_adeta_del2        =   2.7020840819632E-05
(PID.TID 0000.0001) %MON ad_dynstat_aduvel_max        =   6.9153329815477E-03
(PID.TID 0000.0001) %MON ad_dynstat_aduvel_min        =  -8.7804937656318E-03
(PID.TID 0000.0001) %MON ad_dynstat_aduvel_mean       =   7.8717803406587E-05
(PID.TID 0000.0001) %MON ad_dynstat_aduvel_sd         =   6.7757869664558E-04
(PID.TID 0000.0001) %MON ad_dynstat_aduvel_del2       =   3.7873340637523E-05
(PID.TID 0000.0001) %MON ad_dynstat_advvel_max        =   1.1510491347449E-02
(PID.TID 0000.0001) %MON ad_dynstat_advvel_min        =  -1.0939526827586E-02
(PID.TID 0000.0001) %MON ad_dynstat_advvel_mean       =  -7.2167510793412E-05
(PID.TID 0000.0001) %MON ad_dynstat_advvel_sd         =   1.0501513724250E-03
(PID.TID 0000.0001) %MON ad_dynstat_advvel_del2       =   7.7891636770229E-05
(PID.TID 0000.0001) %MON ad_dynstat_adwvel_max        =   1.5479312408103E+00
(PID.TID 0000.0001) %MON ad_dynstat_adwvel_min        =  -8.3217394878703E-01
(PID.TID 0000.0001) %MON ad_dynstat_adwvel_mean       =   2.4562540401752E-04
(PID.TID 0000.0001) %MON ad_dynstat_adwvel_sd         =   2.4844310129977E-02
(PID.TID 0000.0001) %MON ad_dynstat_adwvel_del2       =   1.2790254875897E-03
(PID.TID 0000.0001) %MON ad_dynstat_adtheta_max       =   3.5794879273801E-03
(PID.TID 0000.0001) %MON ad_dynstat_adtheta_min       =  -3.7357654360391E-03
(PID.TID 0000.0001) %MON ad_dynstat_adtheta_mean      =   5.8705556184450E-07
(PID.TID 0000.0001) %MON ad_dynstat_adtheta_sd        =   1.5663191061305E-04
(PID.TID 0000.0001) %MON ad_dynstat_adtheta_del2      =   9.3361411781487E-06
(PID.TID 0000.0001) %MON ad_dynstat_adsalt_max        =   1.5436854684432E-02
(PID.TID 0000.0001) %MON ad_dynstat_adsalt_min        =  -1.5659528626603E-02
(PID.TID 0000.0001) %MON ad_dynstat_adsalt_mean       =  -2.1486086483816E-06
(PID.TID 0000.0001) %MON ad_dynstat_adsalt_sd         =   7.2645218705769E-04
(PID.TID 0000.0001) %MON ad_dynstat_adsalt_del2       =   4.2995350208663E-05
(PID.TID 0000.0001) %MON ad_dynstat_adsst_max         =   1.2942806866793E-04
(PID.TID 0000.0001) %MON ad_dynstat_adsst_min         =  -1.3184263015628E-04
(PID.TID 0000.0001) %MON ad_dynstat_adsst_mean        =   1.3076072363091E-07
(PID.TID 0000.0001) %MON ad_dynstat_adsst_sd          =   6.3263114243860E-06
(PID.TID 0000.0001) %MON ad_dynstat_adsst_del2        =   5.6962209652129E-07
(PID.TID 0000.0001) %MON ad_dynstat_adsss_max         =   3.9265395101832E-04
(PID.TID 0000.0001) %MON ad_dynstat_adsss_min         =  -5.1703475520490E-04
(PID.TID 0000.0001) %MON ad_dynstat_adsss_mean        =  -6.6664256809237E-07
(PID.TID 0000.0001) %MON ad_dynstat_adsss_sd          =   2.1888598523743E-05
(PID.TID 0000.0001) %MON ad_dynstat_adsss_del2        =   2.1544394383839E-06
(PID.TID 0000.0001) %MON ad_extforcing_adqnet_max     =   0.0000000000000E+00
(PID.TID 0000.0001) %MON ad_extforcing_adqnet_min     =   0.0000000000000E+00
(PID.TID 0000.0001) %MON ad_extforcing_adqnet_mean    =   0.0000000000000E+00
(PID.TID 0000.0001) %MON ad_extforcing_adqnet_sd      =   0.0000000000000E+00
(PID.TID 0000.0001) %MON ad_extforcing_adqnet_del2    =   0.0000000000000E+00
(PID.TID 0000.0001) %MON ad_extforcing_adempmr_max    =   1.4547224442311E+03
(PID.TID 0000.0001) %MON ad_extforcing_adempmr_min    =  -1.6080699423006E+03
(PID.TID 0000.0001) %MON ad_extforcing_adempmr_mean   =   4.9800433301692E-01
(PID.TID 0000.0001) %MON ad_extforcing_adempmr_sd     =   8.7219293580865E+01
(PID.TID 0000.0001) %MON ad_extforcing_adempmr_del2   =   7.8499968235209E+00
(PID.TID 0000.0001) %MON ad_extforcing_adfu_max       =   0.0000000000000E+00
(PID.TID 0000.0001) %MON ad_extforcing_adfu_min       =   0.0000000000000E+00
(PID.TID 0000.0001) %MON ad_extforcing_adfu_mean      =   0.0000000000000E+00
(PID.TID 0000.0001) %MON ad_extforcing_adfu_sd        =   0.0000000000000E+00
(PID.TID 0000.0001) %MON ad_extforcing_adfu_del2      =   0.0000000000000E+00
(PID.TID 0000.0001) %MON ad_extforcing_adfv_max       =   0.0000000000000E+00
(PID.TID 0000.0001) %MON ad_extforcing_adfv_min       =   0.0000000000000E+00
(PID.TID 0000.0001) %MON ad_extforcing_adfv_mean      =   0.0000000000000E+00
(PID.TID 0000.0001) %MON ad_extforcing_adfv_sd        =   0.0000000000000E+00
(PID.TID 0000.0001) %MON ad_extforcing_adfv_del2      =   0.0000000000000E+00
(PID.TID 0000.0001) %MON ad_advcfl_aduvel_max         =   9.3438707164874E-04
(PID.TID 0000.0001) %MON ad_advcfl_advvel_max         =   1.1181519313613E-03
(PID.TID 0000.0001) %MON ad_advcfl_adwvel_max         =   3.1311509073798E+02
(PID.TID 0000.0001) %MON ad_advcfl_adW_hf_max         =   4.4204483398302E+02
(PID.TID 0000.0001) // =======================================================
(PID.TID 0000.0001) // End MONITOR dynamic field statistics
(PID.TID 0000.0001) // =======================================================
 cg2d: Sum(rhs),rhsMax =   5.63393082186892E-12  3.15918606168121E-08
(PID.TID 0000.0001) // =======================================================
(PID.TID 0000.0001) // Begin MONITOR dynamic field statistics
(PID.TID 0000.0001) // =======================================================
(PID.TID 0000.0001) %MON ad_time_tsnumber             =                    34
(PID.TID 0000.0001) %MON ad_time_secondsf             =   1.4688000000000E+06
(PID.TID 0000.0001) %MON ad_dynstat_adeta_max         =   1.2788214372582E-03
(PID.TID 0000.0001) %MON ad_dynstat_adeta_min         =  -4.6867775310686E-03
(PID.TID 0000.0001) %MON ad_dynstat_adeta_mean        =  -2.2704797154798E-06
(PID.TID 0000.0001) %MON ad_dynstat_adeta_sd          =   2.6358234527469E-04
(PID.TID 0000.0001) %MON ad_dynstat_adeta_del2        =   2.7441797098491E-05
(PID.TID 0000.0001) %MON ad_dynstat_aduvel_max        =   7.1371980749206E-03
(PID.TID 0000.0001) %MON ad_dynstat_aduvel_min        =  -8.5473082419296E-03
(PID.TID 0000.0001) %MON ad_dynstat_aduvel_mean       =   8.1801591918323E-05
(PID.TID 0000.0001) %MON ad_dynstat_aduvel_sd         =   6.8427060483219E-04
(PID.TID 0000.0001) %MON ad_dynstat_aduvel_del2       =   3.7817018953610E-05
(PID.TID 0000.0001) %MON ad_dynstat_advvel_max        =   1.1260239925139E-02
(PID.TID 0000.0001) %MON ad_dynstat_advvel_min        =  -9.2003993681533E-03
(PID.TID 0000.0001) %MON ad_dynstat_advvel_mean       =  -7.9003872353912E-05
(PID.TID 0000.0001) %MON ad_dynstat_advvel_sd         =   9.9711782261901E-04
(PID.TID 0000.0001) %MON ad_dynstat_advvel_del2       =   7.2641215718716E-05
(PID.TID 0000.0001) %MON ad_dynstat_adwvel_max        =   1.5229616657079E+00
(PID.TID 0000.0001) %MON ad_dynstat_adwvel_min        =  -8.2010315025209E-01
(PID.TID 0000.0001) %MON ad_dynstat_adwvel_mean       =   2.3913073204467E-04
(PID.TID 0000.0001) %MON ad_dynstat_adwvel_sd         =   2.4706899254125E-02
(PID.TID 0000.0001) %MON ad_dynstat_adwvel_del2       =   1.3139323005119E-03
(PID.TID 0000.0001) %MON ad_dynstat_adtheta_max       =   3.5344756782779E-03
(PID.TID 0000.0001) %MON ad_dynstat_adtheta_min       =  -3.6799867901431E-03
(PID.TID 0000.0001) %MON ad_dynstat_adtheta_mean      =   5.9276104864920E-07
(PID.TID 0000.0001) %MON ad_dynstat_adtheta_sd        =   1.5550637980438E-04
(PID.TID 0000.0001) %MON ad_dynstat_adtheta_del2      =   9.4366100969188E-06
(PID.TID 0000.0001) %MON ad_dynstat_adsalt_max        =   1.5589581045256E-02
(PID.TID 0000.0001) %MON ad_dynstat_adsalt_min        =  -1.5523363328717E-02
(PID.TID 0000.0001) %MON ad_dynstat_adsalt_mean       =  -2.1672056201286E-06
(PID.TID 0000.0001) %MON ad_dynstat_adsalt_sd         =   7.2146363416460E-04
(PID.TID 0000.0001) %MON ad_dynstat_adsalt_del2       =   4.3401175539540E-05
(PID.TID 0000.0001) %MON ad_dynstat_adsst_max         =   1.2497878517667E-04
(PID.TID 0000.0001) %MON ad_dynstat_adsst_min         =  -1.2970979748379E-04
(PID.TID 0000.0001) %MON ad_dynstat_adsst_mean        =   1.1799246067180E-07
(PID.TID 0000.0001) %MON ad_dynstat_adsst_sd          =   6.2021501397136E-06
(PID.TID 0000.0001) %MON ad_dynstat_adsst_del2        =   5.7483355057969E-07
(PID.TID 0000.0001) %MON ad_dynstat_adsss_max         =   3.8760292987885E-04
(PID.TID 0000.0001) %MON ad_dynstat_adsss_min         =  -5.0204006751926E-04
(PID.TID 0000.0001) %MON ad_dynstat_adsss_mean        =  -6.1914303052682E-07
(PID.TID 0000.0001) %MON ad_dynstat_adsss_sd          =   2.1439478638906E-05
(PID.TID 0000.0001) %MON ad_dynstat_adsss_del2        =   2.1451793640285E-06
(PID.TID 0000.0001) %MON ad_extforcing_adqnet_max     =   0.0000000000000E+00
(PID.TID 0000.0001) %MON ad_extforcing_adqnet_min     =   0.0000000000000E+00
(PID.TID 0000.0001) %MON ad_extforcing_adqnet_mean    =   0.0000000000000E+00
(PID.TID 0000.0001) %MON ad_extforcing_adqnet_sd      =   0.0000000000000E+00
(PID.TID 0000.0001) %MON ad_extforcing_adqnet_del2    =   0.0000000000000E+00
(PID.TID 0000.0001) %MON ad_extforcing_adempmr_max    =   1.4715213435933E+03
(PID.TID 0000.0001) %MON ad_extforcing_adempmr_min    =  -1.6265474004233E+03
(PID.TID 0000.0001) %MON ad_extforcing_adempmr_mean   =   4.8015221975607E-01
(PID.TID 0000.0001) %MON ad_extforcing_adempmr_sd     =   8.7652053844262E+01
(PID.TID 0000.0001) %MON ad_extforcing_adempmr_del2   =   7.8731704048787E+00
(PID.TID 0000.0001) %MON ad_extforcing_adfu_max       =   0.0000000000000E+00
(PID.TID 0000.0001) %MON ad_extforcing_adfu_min       =   0.0000000000000E+00
(PID.TID 0000.0001) %MON ad_extforcing_adfu_mean      =   0.0000000000000E+00
(PID.TID 0000.0001) %MON ad_extforcing_adfu_sd        =   0.0000000000000E+00
(PID.TID 0000.0001) %MON ad_extforcing_adfu_del2      =   0.0000000000000E+00
(PID.TID 0000.0001) %MON ad_extforcing_adfv_max       =   0.0000000000000E+00
(PID.TID 0000.0001) %MON ad_extforcing_adfv_min       =   0.0000000000000E+00
(PID.TID 0000.0001) %MON ad_extforcing_adfv_mean      =   0.0000000000000E+00
(PID.TID 0000.0001) %MON ad_extforcing_adfv_sd        =   0.0000000000000E+00
(PID.TID 0000.0001) %MON ad_extforcing_adfv_del2      =   0.0000000000000E+00
(PID.TID 0000.0001) %MON ad_advcfl_aduvel_max         =   9.2379612209338E-04
(PID.TID 0000.0001) %MON ad_advcfl_advvel_max         =   1.0938420124590E-03
(PID.TID 0000.0001) %MON ad_advcfl_adwvel_max         =   3.0797389043707E+02
(PID.TID 0000.0001) %MON ad_advcfl_adW_hf_max         =   4.3478666885234E+02
(PID.TID 0000.0001) // =======================================================
(PID.TID 0000.0001) // End MONITOR dynamic field statistics
(PID.TID 0000.0001) // =======================================================
 cg2d: Sum(rhs),rhsMax =   5.57560941860658E-12  3.15602207871247E-08
S/R EXTERNAL_FIELDS_LOAD: Reading new data:    1    2        30  1.296000000000E+06
(PID.TID 0000.0001)  MDSREADFIELD: opening global file: trenberth_taux.bin
(PID.TID 0000.0001)  MDSREADFIELD: opening global file: trenberth_taux.bin
(PID.TID 0000.0001)  MDSREADFIELD: opening global file: trenberth_tauy.bin
(PID.TID 0000.0001)  MDSREADFIELD: opening global file: trenberth_tauy.bin
(PID.TID 0000.0001)  MDSREADFIELD: opening global file: ncep_qnet.bin
(PID.TID 0000.0001)  MDSREADFIELD: opening global file: ncep_qnet.bin
(PID.TID 0000.0001)  MDSREADFIELD: opening global file: lev_sst.bin
(PID.TID 0000.0001)  MDSREADFIELD: opening global file: lev_sst.bin
(PID.TID 0000.0001)  MDSREADFIELD: opening global file: lev_sss.bin
(PID.TID 0000.0001)  MDSREADFIELD: opening global file: lev_sss.bin
time,SST,SSS,fu,fv,Q,E-P,i0,i1,a,b =   1.2960E+06  9.5843E-01  3.4715E+01 -3.5633E-02 -5.7257E-02  2.6577E+02  0.0000E+00     1     2  0.0000E+00  1.0000E+00
time,fu0,fu1,fu =   1.2960E+06 -3.5633E-02 -1.4435E-02 -3.5633E-02  0.000000000000000E+00  1.000000000000000E+00
 cg2d: Sum(rhs),rhsMax =  -9.77776887234327E-13  9.29740447830929E+00
time,SST,SSS,fu,fv,Q,E-P,i0,i1,a,b =   1.3392E+06  9.3359E-01  3.4710E+01 -3.5280E-02 -5.6596E-02  2.6535E+02  0.0000E+00     1     2  1.6667E-02  9.8333E-01
time,fu0,fu1,fu =   1.3392E+06 -3.5633E-02 -1.4435E-02 -3.5280E-02  1.666666666666667E-02  9.833333333333333E-01
 cg2d: Sum(rhs),rhsMax =  -1.75116865452907E-12  9.11143504680530E+00
time,SST,SSS,fu,fv,Q,E-P,i0,i1,a,b =   1.3824E+06  9.0875E-01  3.4705E+01 -3.4926E-02 -5.5936E-02  2.6493E+02  0.0000E+00     1     2  3.3333E-02  9.6667E-01
time,fu0,fu1,fu =   1.3824E+06 -3.5633E-02 -1.4435E-02 -3.4926E-02  3.333333333333333E-02  9.666666666666667E-01
 cg2d: Sum(rhs),rhsMax =  -1.46160861191902E-12  9.23484312292805E+00
(PID.TID 0000.0001) // =======================================================
(PID.TID 0000.0001) // Begin MONITOR dynamic field statistics
(PID.TID 0000.0001) // =======================================================
(PID.TID 0000.0001) %MON ad_time_tsnumber             =                    33
(PID.TID 0000.0001) %MON ad_time_secondsf             =   1.4256000000000E+06
(PID.TID 0000.0001) %MON ad_dynstat_adeta_max         =   1.3295809173084E-03
(PID.TID 0000.0001) %MON ad_dynstat_adeta_min         =  -4.7433927904515E-03
(PID.TID 0000.0001) %MON ad_dynstat_adeta_mean        =  -2.2249681673875E-06
(PID.TID 0000.0001) %MON ad_dynstat_adeta_sd          =   2.6297986453002E-04
(PID.TID 0000.0001) %MON ad_dynstat_adeta_del2        =   2.7730894388785E-05
(PID.TID 0000.0001) %MON ad_dynstat_aduvel_max        =   7.3127639816350E-03
(PID.TID 0000.0001) %MON ad_dynstat_aduvel_min        =  -8.6731232972721E-03
(PID.TID 0000.0001) %MON ad_dynstat_aduvel_mean       =   8.4899869457781E-05
(PID.TID 0000.0001) %MON ad_dynstat_aduvel_sd         =   6.8939785740557E-04
(PID.TID 0000.0001) %MON ad_dynstat_aduvel_del2       =   3.7715197110464E-05
(PID.TID 0000.0001) %MON ad_dynstat_advvel_max        =   1.1152948251482E-02
(PID.TID 0000.0001) %MON ad_dynstat_advvel_min        =  -8.7313014867305E-03
(PID.TID 0000.0001) %MON ad_dynstat_advvel_mean       =  -8.6082089284188E-05
(PID.TID 0000.0001) %MON ad_dynstat_advvel_sd         =   9.5378953720718E-04
(PID.TID 0000.0001) %MON ad_dynstat_advvel_del2       =   6.7819053618656E-05
(PID.TID 0000.0001) %MON ad_dynstat_adwvel_max        =   1.4995644709174E+00
(PID.TID 0000.0001) %MON ad_dynstat_adwvel_min        =  -8.0949857813811E-01
(PID.TID 0000.0001) %MON ad_dynstat_adwvel_mean       =   2.3282667106742E-04
(PID.TID 0000.0001) %MON ad_dynstat_adwvel_sd         =   2.4545596151004E-02
(PID.TID 0000.0001) %MON ad_dynstat_adwvel_del2       =   1.3455960918444E-03
(PID.TID 0000.0001) %MON ad_dynstat_adtheta_max       =   3.4951791409622E-03
(PID.TID 0000.0001) %MON ad_dynstat_adtheta_min       =  -3.6282575109672E-03
(PID.TID 0000.0001) %MON ad_dynstat_adtheta_mean      =   5.9805437895307E-07
(PID.TID 0000.0001) %MON ad_dynstat_adtheta_sd        =   1.5450858077737E-04
(PID.TID 0000.0001) %MON ad_dynstat_adtheta_del2      =   9.5913902996580E-06
(PID.TID 0000.0001) %MON ad_dynstat_adsalt_max        =   1.5735067963110E-02
(PID.TID 0000.0001) %MON ad_dynstat_adsalt_min        =  -1.5409857937644E-02
(PID.TID 0000.0001) %MON ad_dynstat_adsalt_mean       =  -2.1897838598567E-06
(PID.TID 0000.0001) %MON ad_dynstat_adsalt_sd         =   7.1715915525914E-04
(PID.TID 0000.0001) %MON ad_dynstat_adsalt_del2       =   4.4068729952760E-05
(PID.TID 0000.0001) %MON ad_dynstat_adsst_max         =   1.1841580704599E-04
(PID.TID 0000.0001) %MON ad_dynstat_adsst_min         =  -1.2907133840041E-04
(PID.TID 0000.0001) %MON ad_dynstat_adsst_mean        =   1.1091682044868E-07
(PID.TID 0000.0001) %MON ad_dynstat_adsst_sd          =   6.1084442847900E-06
(PID.TID 0000.0001) %MON ad_dynstat_adsst_del2        =   5.7555711977369E-07
(PID.TID 0000.0001) %MON ad_dynstat_adsss_max         =   3.8668380270449E-04
(PID.TID 0000.0001) %MON ad_dynstat_adsss_min         =  -4.8091776705214E-04
(PID.TID 0000.0001) %MON ad_dynstat_adsss_mean        =  -5.9615421619525E-07
(PID.TID 0000.0001) %MON ad_dynstat_adsss_sd          =   2.1143859262746E-05
(PID.TID 0000.0001) %MON ad_dynstat_adsss_del2        =   2.1395060706023E-06
(PID.TID 0000.0001) %MON ad_extforcing_adqnet_max     =   0.0000000000000E+00
(PID.TID 0000.0001) %MON ad_extforcing_adqnet_min     =   0.0000000000000E+00
(PID.TID 0000.0001) %MON ad_extforcing_adqnet_mean    =   0.0000000000000E+00
(PID.TID 0000.0001) %MON ad_extforcing_adqnet_sd      =   0.0000000000000E+00
(PID.TID 0000.0001) %MON ad_extforcing_adqnet_del2    =   0.0000000000000E+00
(PID.TID 0000.0001) %MON ad_extforcing_adempmr_max    =   1.4881739665586E+03
(PID.TID 0000.0001) %MON ad_extforcing_adempmr_min    =  -1.6447573931550E+03
(PID.TID 0000.0001) %MON ad_extforcing_adempmr_mean   =   4.6208219038436E-01
(PID.TID 0000.0001) %MON ad_extforcing_adempmr_sd     =   8.8082181186489E+01
(PID.TID 0000.0001) %MON ad_extforcing_adempmr_del2   =   7.8956283721264E+00
(PID.TID 0000.0001) %MON ad_extforcing_adfu_max       =   0.0000000000000E+00
(PID.TID 0000.0001) %MON ad_extforcing_adfu_min       =   0.0000000000000E+00
(PID.TID 0000.0001) %MON ad_extforcing_adfu_mean      =   0.0000000000000E+00
(PID.TID 0000.0001) %MON ad_extforcing_adfu_sd        =   0.0000000000000E+00
(PID.TID 0000.0001) %MON ad_extforcing_adfu_del2      =   0.0000000000000E+00
(PID.TID 0000.0001) %MON ad_extforcing_adfv_max       =   0.0000000000000E+00
(PID.TID 0000.0001) %MON ad_extforcing_adfv_min       =   0.0000000000000E+00
(PID.TID 0000.0001) %MON ad_extforcing_adfv_mean      =   0.0000000000000E+00
(PID.TID 0000.0001) %MON ad_extforcing_adfv_sd        =   0.0000000000000E+00
(PID.TID 0000.0001) %MON ad_extforcing_adfv_del2      =   0.0000000000000E+00
(PID.TID 0000.0001) %MON ad_advcfl_aduvel_max         =   9.3739425813066E-04
(PID.TID 0000.0001) %MON ad_advcfl_advvel_max         =   1.0834194867390E-03
(PID.TID 0000.0001) %MON ad_advcfl_adwvel_max         =   3.0323190055497E+02
(PID.TID 0000.0001) %MON ad_advcfl_adW_hf_max         =   4.2809209490113E+02
(PID.TID 0000.0001) // =======================================================
(PID.TID 0000.0001) // End MONITOR dynamic field statistics
(PID.TID 0000.0001) // =======================================================
 cg2d: Sum(rhs),rhsMax =   5.56283491492948E-12  3.15184230686771E-08
(PID.TID 0000.0001) // =======================================================
(PID.TID 0000.0001) // Begin MONITOR dynamic field statistics
(PID.TID 0000.0001) // =======================================================
(PID.TID 0000.0001) %MON ad_time_tsnumber             =                    32
(PID.TID 0000.0001) %MON ad_time_secondsf             =   1.3824000000000E+06
(PID.TID 0000.0001) %MON ad_dynstat_adeta_max         =   1.3668291926785E-03
(PID.TID 0000.0001) %MON ad_dynstat_adeta_min         =  -4.7743818039517E-03
(PID.TID 0000.0001) %MON ad_dynstat_adeta_mean        =  -2.1244100517093E-06
(PID.TID 0000.0001) %MON ad_dynstat_adeta_sd          =   2.6201242676071E-04
(PID.TID 0000.0001) %MON ad_dynstat_adeta_del2        =   2.7924925793501E-05
(PID.TID 0000.0001) %MON ad_dynstat_aduvel_max        =   7.6946979023696E-03
(PID.TID 0000.0001) %MON ad_dynstat_aduvel_min        =  -8.7523720894811E-03
(PID.TID 0000.0001) %MON ad_dynstat_aduvel_mean       =   8.8050714050372E-05
(PID.TID 0000.0001) %MON ad_dynstat_aduvel_sd         =   6.9316659111199E-04
(PID.TID 0000.0001) %MON ad_dynstat_aduvel_del2       =   3.7556696890909E-05
(PID.TID 0000.0001) %MON ad_dynstat_advvel_max        =   1.0971366263884E-02
(PID.TID 0000.0001) %MON ad_dynstat_advvel_min        =  -8.2253807268002E-03
(PID.TID 0000.0001) %MON ad_dynstat_advvel_mean       =  -9.3324192099405E-05
(PID.TID 0000.0001) %MON ad_dynstat_advvel_sd         =   9.2259691309724E-04
(PID.TID 0000.0001) %MON ad_dynstat_advvel_del2       =   6.4292004587961E-05
(PID.TID 0000.0001) %MON ad_dynstat_adwvel_max        =   1.4780200121216E+00
(PID.TID 0000.0001) %MON ad_dynstat_adwvel_min        =  -8.0042228516460E-01
(PID.TID 0000.0001) %MON ad_dynstat_adwvel_mean       =   2.2657491930635E-04
(PID.TID 0000.0001) %MON ad_dynstat_adwvel_sd         =   2.4354775765286E-02
(PID.TID 0000.0001) %MON ad_dynstat_adwvel_del2       =   1.3709544480177E-03
(PID.TID 0000.0001) %MON ad_dynstat_adtheta_max       =   3.4617957668189E-03
(PID.TID 0000.0001) %MON ad_dynstat_adtheta_min       =  -3.5810868180411E-03
(PID.TID 0000.0001) %MON ad_dynstat_adtheta_mean      =   6.0298050743162E-07
(PID.TID 0000.0001) %MON ad_dynstat_adtheta_sd        =   1.5360762134118E-04
(PID.TID 0000.0001) %MON ad_dynstat_adtheta_del2      =   9.7304212675645E-06
(PID.TID 0000.0001) %MON ad_dynstat_adsalt_max        =   1.5872106735203E-02
(PID.TID 0000.0001) %MON ad_dynstat_adsalt_min        =  -1.5319526423790E-02
(PID.TID 0000.0001) %MON ad_dynstat_adsalt_mean       =  -2.2168741186617E-06
(PID.TID 0000.0001) %MON ad_dynstat_adsalt_sd         =   7.1339271504683E-04
(PID.TID 0000.0001) %MON ad_dynstat_adsalt_del2       =   4.4716013335184E-05
(PID.TID 0000.0001) %MON ad_dynstat_adsst_max         =   1.1276529778773E-04
(PID.TID 0000.0001) %MON ad_dynstat_adsst_min         =  -1.2686816802069E-04
(PID.TID 0000.0001) %MON ad_dynstat_adsst_mean        =   1.0536861971459E-07
(PID.TID 0000.0001) %MON ad_dynstat_adsst_sd          =   6.0339596652822E-06
(PID.TID 0000.0001) %MON ad_dynstat_adsst_del2        =   5.7716240856045E-07
(PID.TID 0000.0001) %MON ad_dynstat_adsss_max         =   3.8148605964948E-04
(PID.TID 0000.0001) %MON ad_dynstat_adsss_min         =  -4.6237677870291E-04
(PID.TID 0000.0001) %MON ad_dynstat_adsss_mean        =  -5.8029822871360E-07
(PID.TID 0000.0001) %MON ad_dynstat_adsss_sd          =   2.0912875889115E-05
(PID.TID 0000.0001) %MON ad_dynstat_adsss_del2        =   2.1379428277674E-06
(PID.TID 0000.0001) %MON ad_extforcing_adqnet_max     =   0.0000000000000E+00
(PID.TID 0000.0001) %MON ad_extforcing_adqnet_min     =   0.0000000000000E+00
(PID.TID 0000.0001) %MON ad_extforcing_adqnet_mean    =   0.0000000000000E+00
(PID.TID 0000.0001) %MON ad_extforcing_adqnet_sd      =   0.0000000000000E+00
(PID.TID 0000.0001) %MON ad_extforcing_adqnet_del2    =   0.0000000000000E+00
(PID.TID 0000.0001) %MON ad_extforcing_adempmr_max    =   1.5047074630771E+03
(PID.TID 0000.0001) %MON ad_extforcing_adempmr_min    =  -1.6624662355457E+03
(PID.TID 0000.0001) %MON ad_extforcing_adempmr_mean   =   4.4458127093947E-01
(PID.TID 0000.0001) %MON ad_extforcing_adempmr_sd     =   8.8507102707435E+01
(PID.TID 0000.0001) %MON ad_extforcing_adempmr_del2   =   7.9169093727055E+00
(PID.TID 0000.0001) %MON ad_extforcing_adfu_max       =   0.0000000000000E+00
(PID.TID 0000.0001) %MON ad_extforcing_adfu_min       =   0.0000000000000E+00
(PID.TID 0000.0001) %MON ad_extforcing_adfu_mean      =   0.0000000000000E+00
(PID.TID 0000.0001) %MON ad_extforcing_adfu_sd        =   0.0000000000000E+00
(PID.TID 0000.0001) %MON ad_extforcing_adfu_del2      =   0.0000000000000E+00
(PID.TID 0000.0001) %MON ad_extforcing_adfv_max       =   0.0000000000000E+00
(PID.TID 0000.0001) %MON ad_extforcing_adfv_min       =   0.0000000000000E+00
(PID.TID 0000.0001) %MON ad_extforcing_adfv_mean      =   0.0000000000000E+00
(PID.TID 0000.0001) %MON ad_extforcing_adfv_sd        =   0.0000000000000E+00
(PID.TID 0000.0001) %MON ad_extforcing_adfv_del2      =   0.0000000000000E+00
(PID.TID 0000.0001) %MON ad_advcfl_aduvel_max         =   9.4595949584656E-04
(PID.TID 0000.0001) %MON ad_advcfl_advvel_max         =   1.0657802527563E-03
(PID.TID 0000.0001) %MON ad_advcfl_adwvel_max         =   2.9894673222246E+02
(PID.TID 0000.0001) %MON ad_advcfl_adW_hf_max         =   4.2204244549053E+02
(PID.TID 0000.0001) // =======================================================
(PID.TID 0000.0001) // End MONITOR dynamic field statistics
(PID.TID 0000.0001) // =======================================================
 cg2d: Sum(rhs),rhsMax =   5.54796486529341E-12  3.14448411345887E-08
(PID.TID 0000.0001) // =======================================================
(PID.TID 0000.0001) // Begin MONITOR dynamic field statistics
(PID.TID 0000.0001) // =======================================================
(PID.TID 0000.0001) %MON ad_time_tsnumber             =                    31
(PID.TID 0000.0001) %MON ad_time_secondsf             =   1.3392000000000E+06
(PID.TID 0000.0001) %MON ad_dynstat_adeta_max         =   1.3901440392254E-03
(PID.TID 0000.0001) %MON ad_dynstat_adeta_min         =  -4.7785510872256E-03
(PID.TID 0000.0001) %MON ad_dynstat_adeta_mean        =  -1.9713987940757E-06
(PID.TID 0000.0001) %MON ad_dynstat_adeta_sd          =   2.6056906738246E-04
(PID.TID 0000.0001) %MON ad_dynstat_adeta_del2        =   2.8014085825025E-05
(PID.TID 0000.0001) %MON ad_dynstat_aduvel_max        =   8.2265986896797E-03
(PID.TID 0000.0001) %MON ad_dynstat_aduvel_min        =  -8.7863132959568E-03
(PID.TID 0000.0001) %MON ad_dynstat_aduvel_mean       =   9.1280995640235E-05
(PID.TID 0000.0001) %MON ad_dynstat_aduvel_sd         =   6.9579992032010E-04
(PID.TID 0000.0001) %MON ad_dynstat_aduvel_del2       =   3.7427517865838E-05
(PID.TID 0000.0001) %MON ad_dynstat_advvel_max        =   1.0717121619704E-02
(PID.TID 0000.0001) %MON ad_dynstat_advvel_min        =  -7.6854799743800E-03
(PID.TID 0000.0001) %MON ad_dynstat_advvel_mean       =  -1.0064159804143E-04
(PID.TID 0000.0001) %MON ad_dynstat_advvel_sd         =   9.0546906877997E-04
(PID.TID 0000.0001) %MON ad_dynstat_advvel_del2       =   6.3097162681269E-05
(PID.TID 0000.0001) %MON ad_dynstat_adwvel_max        =   1.4585738764742E+00
(PID.TID 0000.0001) %MON ad_dynstat_adwvel_min        =  -7.9291835864871E-01
(PID.TID 0000.0001) %MON ad_dynstat_adwvel_mean       =   2.2048934465682E-04
(PID.TID 0000.0001) %MON ad_dynstat_adwvel_sd         =   2.4131216726516E-02
(PID.TID 0000.0001) %MON ad_dynstat_adwvel_del2       =   1.3883519392273E-03
(PID.TID 0000.0001) %MON ad_dynstat_adtheta_max       =   3.4343984422250E-03
(PID.TID 0000.0001) %MON ad_dynstat_adtheta_min       =  -3.5389296764308E-03
(PID.TID 0000.0001) %MON ad_dynstat_adtheta_mean      =   6.0758186663415E-07
(PID.TID 0000.0001) %MON ad_dynstat_adtheta_sd        =   1.5277744365217E-04
(PID.TID 0000.0001) %MON ad_dynstat_adtheta_del2      =   9.8386359302395E-06
(PID.TID 0000.0001) %MON ad_dynstat_adsalt_max        =   1.5999720420739E-02
(PID.TID 0000.0001) %MON ad_dynstat_adsalt_min        =  -1.5252294594978E-02
(PID.TID 0000.0001) %MON ad_dynstat_adsalt_mean       =  -2.2486671006544E-06
(PID.TID 0000.0001) %MON ad_dynstat_adsalt_sd         =   7.1003750542054E-04
(PID.TID 0000.0001) %MON ad_dynstat_adsalt_del2       =   4.5252474974436E-05
(PID.TID 0000.0001) %MON ad_dynstat_adsst_max         =   1.0850653935570E-04
(PID.TID 0000.0001) %MON ad_dynstat_adsst_min         =  -1.2446186574705E-04
(PID.TID 0000.0001) %MON ad_dynstat_adsst_mean        =   1.0058556887447E-07
(PID.TID 0000.0001) %MON ad_dynstat_adsst_sd          =   6.0017605472187E-06
(PID.TID 0000.0001) %MON ad_dynstat_adsst_del2        =   5.8088844053102E-07
(PID.TID 0000.0001) %MON ad_dynstat_adsss_max         =   3.7560797511414E-04
(PID.TID 0000.0001) %MON ad_dynstat_adsss_min         =  -4.4778099477932E-04
(PID.TID 0000.0001) %MON ad_dynstat_adsss_mean        =  -5.6952951716052E-07
(PID.TID 0000.0001) %MON ad_dynstat_adsss_sd          =   2.0797400265189E-05
(PID.TID 0000.0001) %MON ad_dynstat_adsss_del2        =   2.1429683125397E-06
(PID.TID 0000.0001) %MON ad_extforcing_adqnet_max     =   0.0000000000000E+00
(PID.TID 0000.0001) %MON ad_extforcing_adqnet_min     =   0.0000000000000E+00
(PID.TID 0000.0001) %MON ad_extforcing_adqnet_mean    =   0.0000000000000E+00
(PID.TID 0000.0001) %MON ad_extforcing_adqnet_sd      =   0.0000000000000E+00
(PID.TID 0000.0001) %MON ad_extforcing_adqnet_del2    =   0.0000000000000E+00
(PID.TID 0000.0001) %MON ad_extforcing_adempmr_max    =   1.5211351711875E+03
(PID.TID 0000.0001) %MON ad_extforcing_adempmr_min    =  -1.6795487445760E+03
(PID.TID 0000.0001) %MON ad_extforcing_adempmr_mean   =   4.2757199000099E-01
(PID.TID 0000.0001) %MON ad_extforcing_adempmr_sd     =   8.8928630541760E+01
(PID.TID 0000.0001) %MON ad_extforcing_adempmr_del2   =   7.9373910738374E+00
(PID.TID 0000.0001) %MON ad_extforcing_adfu_max       =   0.0000000000000E+00
(PID.TID 0000.0001) %MON ad_extforcing_adfu_min       =   0.0000000000000E+00
(PID.TID 0000.0001) %MON ad_extforcing_adfu_mean      =   0.0000000000000E+00
(PID.TID 0000.0001) %MON ad_extforcing_adfu_sd        =   0.0000000000000E+00
(PID.TID 0000.0001) %MON ad_extforcing_adfu_del2      =   0.0000000000000E+00
(PID.TID 0000.0001) %MON ad_extforcing_adfv_max       =   0.0000000000000E+00
(PID.TID 0000.0001) %MON ad_extforcing_adfv_min       =   0.0000000000000E+00
(PID.TID 0000.0001) %MON ad_extforcing_adfv_mean      =   0.0000000000000E+00
(PID.TID 0000.0001) %MON ad_extforcing_adfv_sd        =   0.0000000000000E+00
(PID.TID 0000.0001) %MON ad_extforcing_adfv_del2      =   0.0000000000000E+00
(PID.TID 0000.0001) %MON ad_advcfl_aduvel_max         =   9.4962787354326E-04
(PID.TID 0000.0001) %MON ad_advcfl_advvel_max         =   1.0410824243712E-03
(PID.TID 0000.0001) %MON ad_advcfl_adwvel_max         =   2.9515713994811E+02
(PID.TID 0000.0001) %MON ad_advcfl_adW_hf_max         =   4.1669243286792E+02
(PID.TID 0000.0001) // =======================================================
(PID.TID 0000.0001) // End MONITOR dynamic field statistics
(PID.TID 0000.0001) // =======================================================
 cg2d: Sum(rhs),rhsMax =   5.47586281873791E-12  3.13257101738167E-08
 myIter=  30
 ph-mnc in addummy param  T
 ph-mnc in addummy myiter  30
time,SST,SSS,fu,fv,Q,E-P,i0,i1,a,b =   1.1664E+06  8.6790E-01  3.4679E+01 -3.6120E-02 -5.7906E-02  2.6570E+02  0.0000E+00    12     1  9.5000E-01  5.0000E-02
time,fu0,fu1,fu =   1.1664E+06 -4.5368E-02 -3.5633E-02 -3.6120E-02  9.500000000000000E-01  5.000000000000004E-02
 cg2d: Sum(rhs),rhsMax =  -1.15888201812631E-12  1.17775992285089E+01
time,SST,SSS,fu,fv,Q,E-P,i0,i1,a,b =   1.2096E+06  8.9807E-01  3.4691E+01 -3.5957E-02 -5.7690E-02  2.6573E+02  0.0000E+00    12     1  9.6667E-01  3.3333E-02
time,fu0,fu1,fu =   1.2096E+06 -4.5368E-02 -3.5633E-02 -3.5957E-02  9.666666666666667E-01  3.333333333333333E-02
 cg2d: Sum(rhs),rhsMax =  -1.01207930924829E-12  1.11321543547212E+01
time,SST,SSS,fu,fv,Q,E-P,i0,i1,a,b =   1.2528E+06  9.2825E-01  3.4703E+01 -3.5795E-02 -5.7473E-02  2.6575E+02  0.0000E+00    12     1  9.8333E-01  1.6667E-02
time,fu0,fu1,fu =   1.2528E+06 -4.5368E-02 -3.5633E-02 -3.5795E-02  9.833333333333333E-01  1.666666666666672E-02
 cg2d: Sum(rhs),rhsMax =  -1.22690052561936E-12  1.02967139423326E+01
(PID.TID 0000.0001) // =======================================================
(PID.TID 0000.0001) // Begin MONITOR dynamic field statistics
(PID.TID 0000.0001) // =======================================================
(PID.TID 0000.0001) %MON ad_time_tsnumber             =                    30
(PID.TID 0000.0001) %MON ad_time_secondsf             =   1.2960000000000E+06
(PID.TID 0000.0001) %MON ad_dynstat_adeta_max         =   1.3994676585646E-03
(PID.TID 0000.0001) %MON ad_dynstat_adeta_min         =  -4.7551331551806E-03
(PID.TID 0000.0001) %MON ad_dynstat_adeta_mean        =  -1.6787579692608E-06
(PID.TID 0000.0001) %MON ad_dynstat_adeta_sd          =   2.5871087983959E-04
(PID.TID 0000.0001) %MON ad_dynstat_adeta_del2        =   2.8112277839535E-05
(PID.TID 0000.0001) %MON ad_dynstat_aduvel_max        =   8.7372888395432E-03
(PID.TID 0000.0001) %MON ad_dynstat_aduvel_min        =  -8.7759768802863E-03
(PID.TID 0000.0001) %MON ad_dynstat_aduvel_mean       =   9.5167331031638E-05
(PID.TID 0000.0001) %MON ad_dynstat_aduvel_sd         =   6.9694878966027E-04
(PID.TID 0000.0001) %MON ad_dynstat_aduvel_del2       =   3.6185913073258E-05
(PID.TID 0000.0001) %MON ad_dynstat_advvel_max        =   1.0392957680795E-02
(PID.TID 0000.0001) %MON ad_dynstat_advvel_min        =  -7.4824861815259E-03
(PID.TID 0000.0001) %MON ad_dynstat_advvel_mean       =  -1.0794004960839E-04
(PID.TID 0000.0001) %MON ad_dynstat_advvel_sd         =   9.0345041330006E-04
(PID.TID 0000.0001) %MON ad_dynstat_advvel_del2       =   6.3972019786321E-05
(PID.TID 0000.0001) %MON ad_dynstat_adwvel_max        =   1.4414543623734E+00
(PID.TID 0000.0001) %MON ad_dynstat_adwvel_min        =  -7.8698427575296E-01
(PID.TID 0000.0001) %MON ad_dynstat_adwvel_mean       =   2.1462471167178E-04
(PID.TID 0000.0001) %MON ad_dynstat_adwvel_sd         =   2.3874049718323E-02
(PID.TID 0000.0001) %MON ad_dynstat_adwvel_del2       =   1.3982356286046E-03
(PID.TID 0000.0001) %MON ad_dynstat_adtheta_max       =   3.4130096736645E-03
(PID.TID 0000.0001) %MON ad_dynstat_adtheta_min       =  -3.5021773395772E-03
(PID.TID 0000.0001) %MON ad_dynstat_adtheta_mean      =   6.0340826157179E-07
(PID.TID 0000.0001) %MON ad_dynstat_adtheta_sd        =   1.5200386897679E-04
(PID.TID 0000.0001) %MON ad_dynstat_adtheta_del2      =   9.9006163996745E-06
(PID.TID 0000.0001) %MON ad_dynstat_adsalt_max        =   1.6117133190826E-02
(PID.TID 0000.0001) %MON ad_dynstat_adsalt_min        =  -1.5207853727153E-02
(PID.TID 0000.0001) %MON ad_dynstat_adsalt_mean       =  -2.2513916748711E-06
(PID.TID 0000.0001) %MON ad_dynstat_adsalt_sd         =   7.0701809470078E-04
(PID.TID 0000.0001) %MON ad_dynstat_adsalt_del2       =   4.5529083804921E-05
(PID.TID 0000.0001) %MON ad_dynstat_adsst_max         =   1.0421045968542E-04
(PID.TID 0000.0001) %MON ad_dynstat_adsst_min         =  -1.2293821616836E-04
(PID.TID 0000.0001) %MON ad_dynstat_adsst_mean        =   9.3805917283662E-08
(PID.TID 0000.0001) %MON ad_dynstat_adsst_sd          =   6.0151527922280E-06
(PID.TID 0000.0001) %MON ad_dynstat_adsst_del2        =   5.7000617343683E-07
(PID.TID 0000.0001) %MON ad_dynstat_adsss_max         =   3.7207419867202E-04
(PID.TID 0000.0001) %MON ad_dynstat_adsss_min         =  -4.3311252270601E-04
(PID.TID 0000.0001) %MON ad_dynstat_adsss_mean        =  -5.6594027038478E-07
(PID.TID 0000.0001) %MON ad_dynstat_adsss_sd          =   2.0779824980160E-05
(PID.TID 0000.0001) %MON ad_dynstat_adsss_del2        =   2.0580805879388E-06
(PID.TID 0000.0001) %MON ad_extforcing_adqnet_max     =   0.0000000000000E+00
(PID.TID 0000.0001) %MON ad_extforcing_adqnet_min     =   0.0000000000000E+00
(PID.TID 0000.0001) %MON ad_extforcing_adqnet_mean    =   0.0000000000000E+00
(PID.TID 0000.0001) %MON ad_extforcing_adqnet_sd      =   0.0000000000000E+00
(PID.TID 0000.0001) %MON ad_extforcing_adqnet_del2    =   0.0000000000000E+00
(PID.TID 0000.0001) %MON ad_extforcing_adempmr_max    =   1.5374622630841E+03
(PID.TID 0000.0001) %MON ad_extforcing_adempmr_min    =  -1.6962157955195E+03
(PID.TID 0000.0001) %MON ad_extforcing_adempmr_mean   =   4.1082651795206E-01
(PID.TID 0000.0001) %MON ad_extforcing_adempmr_sd     =   8.9351597616303E+01
(PID.TID 0000.0001) %MON ad_extforcing_adempmr_del2   =   7.9598032124364E+00
(PID.TID 0000.0001) %MON ad_extforcing_adfu_max       =   0.0000000000000E+00
(PID.TID 0000.0001) %MON ad_extforcing_adfu_min       =   0.0000000000000E+00
(PID.TID 0000.0001) %MON ad_extforcing_adfu_mean      =   0.0000000000000E+00
(PID.TID 0000.0001) %MON ad_extforcing_adfu_sd        =   0.0000000000000E+00
(PID.TID 0000.0001) %MON ad_extforcing_adfu_del2      =   0.0000000000000E+00
(PID.TID 0000.0001) %MON ad_extforcing_adfv_max       =   0.0000000000000E+00
(PID.TID 0000.0001) %MON ad_extforcing_adfv_min       =   0.0000000000000E+00
(PID.TID 0000.0001) %MON ad_extforcing_adfv_mean      =   0.0000000000000E+00
(PID.TID 0000.0001) %MON ad_extforcing_adfv_sd        =   0.0000000000000E+00
(PID.TID 0000.0001) %MON ad_extforcing_adfv_del2      =   0.0000000000000E+00
(PID.TID 0000.0001) %MON ad_advcfl_aduvel_max         =   9.4851071005243E-04
(PID.TID 0000.0001) %MON ad_advcfl_advvel_max         =   1.0095924971884E-03
(PID.TID 0000.0001) %MON ad_advcfl_adwvel_max         =   2.9189487299112E+02
(PID.TID 0000.0001) %MON ad_advcfl_adW_hf_max         =   4.1208687951687E+02
(PID.TID 0000.0001) // =======================================================
(PID.TID 0000.0001) // End MONITOR dynamic field statistics
(PID.TID 0000.0001) // =======================================================
 cg2d: Sum(rhs),rhsMax =   5.42751260601548E-12  3.11556443128493E-08
(PID.TID 0000.0001) // =======================================================
(PID.TID 0000.0001) // Begin MONITOR dynamic field statistics
(PID.TID 0000.0001) // =======================================================
(PID.TID 0000.0001) %MON ad_time_tsnumber             =                    29
(PID.TID 0000.0001) %MON ad_time_secondsf             =   1.2528000000000E+06
(PID.TID 0000.0001) %MON ad_dynstat_adeta_max         =   1.3950239110318E-03
(PID.TID 0000.0001) %MON ad_dynstat_adeta_min         =  -4.7039404185243E-03
(PID.TID 0000.0001) %MON ad_dynstat_adeta_mean        =  -1.5206259487547E-06
(PID.TID 0000.0001) %MON ad_dynstat_adeta_sd          =   2.5608076583010E-04
(PID.TID 0000.0001) %MON ad_dynstat_adeta_del2        =   2.7999689775555E-05
(PID.TID 0000.0001) %MON ad_dynstat_aduvel_max        =   9.2222316181150E-03
(PID.TID 0000.0001) %MON ad_dynstat_aduvel_min        =  -8.7221566458465E-03
(PID.TID 0000.0001) %MON ad_dynstat_aduvel_mean       =   9.8045782311325E-05
(PID.TID 0000.0001) %MON ad_dynstat_aduvel_sd         =   6.9858141544751E-04
(PID.TID 0000.0001) %MON ad_dynstat_aduvel_del2       =   3.7160114687331E-05
(PID.TID 0000.0001) %MON ad_dynstat_advvel_max        =   1.0002628414896E-02
(PID.TID 0000.0001) %MON ad_dynstat_advvel_min        =  -7.3345177781659E-03
(PID.TID 0000.0001) %MON ad_dynstat_advvel_mean       =  -1.1510183978925E-04
(PID.TID 0000.0001) %MON ad_dynstat_advvel_sd         =   9.1639806103215E-04
(PID.TID 0000.0001) %MON ad_dynstat_advvel_del2       =   6.6875161971772E-05
(PID.TID 0000.0001) %MON ad_dynstat_adwvel_max        =   1.4268634237912E+00
(PID.TID 0000.0001) %MON ad_dynstat_adwvel_min        =  -7.8261107290515E-01
(PID.TID 0000.0001) %MON ad_dynstat_adwvel_mean       =   2.0899252992581E-04
(PID.TID 0000.0001) %MON ad_dynstat_adwvel_sd         =   2.3585594902274E-02
(PID.TID 0000.0001) %MON ad_dynstat_adwvel_del2       =   1.4002841344527E-03
(PID.TID 0000.0001) %MON ad_dynstat_adtheta_max       =   3.3976333047516E-03
(PID.TID 0000.0001) %MON ad_dynstat_adtheta_min       =  -3.4711412752118E-03
(PID.TID 0000.0001) %MON ad_dynstat_adtheta_mean      =   6.1628762527822E-07
(PID.TID 0000.0001) %MON ad_dynstat_adtheta_sd        =   1.5126638135959E-04
(PID.TID 0000.0001) %MON ad_dynstat_adtheta_del2      =   9.9578646562493E-06
(PID.TID 0000.0001) %MON ad_dynstat_adsalt_max        =   1.6223732919403E-02
(PID.TID 0000.0001) %MON ad_dynstat_adsalt_min        =  -1.5185815895359E-02
(PID.TID 0000.0001) %MON ad_dynstat_adsalt_mean       =  -2.3283158057728E-06
(PID.TID 0000.0001) %MON ad_dynstat_adsalt_sd         =   7.0423048830391E-04
(PID.TID 0000.0001) %MON ad_dynstat_adsalt_del2       =   4.5919365690812E-05
(PID.TID 0000.0001) %MON ad_dynstat_adsst_max         =   1.1777204796422E-04
(PID.TID 0000.0001) %MON ad_dynstat_adsst_min         =  -1.2154210139336E-04
(PID.TID 0000.0001) %MON ad_dynstat_adsst_mean        =   9.1126416366012E-08
(PID.TID 0000.0001) %MON ad_dynstat_adsst_sd          =   6.1013789817448E-06
(PID.TID 0000.0001) %MON ad_dynstat_adsst_del2        =   5.9073302926325E-07
(PID.TID 0000.0001) %MON ad_dynstat_adsss_max         =   3.6882879247829E-04
(PID.TID 0000.0001) %MON ad_dynstat_adsss_min         =  -4.3120726915909E-04
(PID.TID 0000.0001) %MON ad_dynstat_adsss_mean        =  -5.5695438067010E-07
(PID.TID 0000.0001) %MON ad_dynstat_adsss_sd          =   2.1005120387910E-05
(PID.TID 0000.0001) %MON ad_dynstat_adsss_del2        =   2.1676793184479E-06
(PID.TID 0000.0001) %MON ad_extforcing_adqnet_max     =   0.0000000000000E+00
(PID.TID 0000.0001) %MON ad_extforcing_adqnet_min     =   0.0000000000000E+00
(PID.TID 0000.0001) %MON ad_extforcing_adqnet_mean    =   0.0000000000000E+00
(PID.TID 0000.0001) %MON ad_extforcing_adqnet_sd      =   0.0000000000000E+00
(PID.TID 0000.0001) %MON ad_extforcing_adqnet_del2    =   0.0000000000000E+00
(PID.TID 0000.0001) %MON ad_extforcing_adempmr_max    =   1.5536893003590E+03
(PID.TID 0000.0001) %MON ad_extforcing_adempmr_min    =  -1.7124176424177E+03
(PID.TID 0000.0001) %MON ad_extforcing_adempmr_mean   =   3.9429415363530E-01
(PID.TID 0000.0001) %MON ad_extforcing_adempmr_sd     =   8.9778276477271E+01
(PID.TID 0000.0001) %MON ad_extforcing_adempmr_del2   =   7.9866965340784E+00
(PID.TID 0000.0001) %MON ad_extforcing_adfu_max       =   0.0000000000000E+00
(PID.TID 0000.0001) %MON ad_extforcing_adfu_min       =   0.0000000000000E+00
(PID.TID 0000.0001) %MON ad_extforcing_adfu_mean      =   0.0000000000000E+00
(PID.TID 0000.0001) %MON ad_extforcing_adfu_sd        =   0.0000000000000E+00
(PID.TID 0000.0001) %MON ad_extforcing_adfu_del2      =   0.0000000000000E+00
(PID.TID 0000.0001) %MON ad_extforcing_adfv_max       =   0.0000000000000E+00
(PID.TID 0000.0001) %MON ad_extforcing_adfv_min       =   0.0000000000000E+00
(PID.TID 0000.0001) %MON ad_extforcing_adfv_mean      =   0.0000000000000E+00
(PID.TID 0000.0001) %MON ad_extforcing_adfv_sd        =   0.0000000000000E+00
(PID.TID 0000.0001) %MON ad_extforcing_adfv_del2      =   0.0000000000000E+00
(PID.TID 0000.0001) %MON ad_advcfl_aduvel_max         =   9.9674208121670E-04
(PID.TID 0000.0001) %MON ad_advcfl_advvel_max         =   9.7167513907076E-04
(PID.TID 0000.0001) %MON ad_advcfl_adwvel_max         =   2.8918456019338E+02
(PID.TID 0000.0001) %MON ad_advcfl_adW_hf_max         =   4.0826055556713E+02
(PID.TID 0000.0001) // =======================================================
(PID.TID 0000.0001) // End MONITOR dynamic field statistics
(PID.TID 0000.0001) // =======================================================
 cg2d: Sum(rhs),rhsMax =   5.43693562393699E-12  3.09374622958329E-08
(PID.TID 0000.0001) // =======================================================
(PID.TID 0000.0001) // Begin MONITOR dynamic field statistics
(PID.TID 0000.0001) // =======================================================
(PID.TID 0000.0001) %MON ad_time_tsnumber             =                    28
(PID.TID 0000.0001) %MON ad_time_secondsf             =   1.2096000000000E+06
(PID.TID 0000.0001) %MON ad_dynstat_adeta_max         =   1.3773068509663E-03
(PID.TID 0000.0001) %MON ad_dynstat_adeta_min         =  -4.6254951598052E-03
(PID.TID 0000.0001) %MON ad_dynstat_adeta_mean        =  -1.2299705216897E-06
(PID.TID 0000.0001) %MON ad_dynstat_adeta_sd          =   2.5308167015498E-04
(PID.TID 0000.0001) %MON ad_dynstat_adeta_del2        =   2.7863984243024E-05
(PID.TID 0000.0001) %MON ad_dynstat_aduvel_max        =   9.6767924296672E-03
(PID.TID 0000.0001) %MON ad_dynstat_aduvel_min        =  -8.6264810671402E-03
(PID.TID 0000.0001) %MON ad_dynstat_aduvel_mean       =   1.0158695966783E-04
(PID.TID 0000.0001) %MON ad_dynstat_aduvel_sd         =   6.9913865016002E-04
(PID.TID 0000.0001) %MON ad_dynstat_aduvel_del2       =   3.7034062451890E-05
(PID.TID 0000.0001) %MON ad_dynstat_advvel_max        =   1.1497164121823E-02
(PID.TID 0000.0001) %MON ad_dynstat_advvel_min        =  -7.4741241135558E-03
(PID.TID 0000.0001) %MON ad_dynstat_advvel_mean       =  -1.2202655917972E-04
(PID.TID 0000.0001) %MON ad_dynstat_advvel_sd         =   9.4302706032704E-04
(PID.TID 0000.0001) %MON ad_dynstat_advvel_del2       =   7.1319590508173E-05
(PID.TID 0000.0001) %MON ad_dynstat_adwvel_max        =   1.4149645207054E+00
(PID.TID 0000.0001) %MON ad_dynstat_adwvel_min        =  -7.7978508925550E-01
(PID.TID 0000.0001) %MON ad_dynstat_adwvel_mean       =   2.0365124391157E-04
(PID.TID 0000.0001) %MON ad_dynstat_adwvel_sd         =   2.3271248519183E-02
(PID.TID 0000.0001) %MON ad_dynstat_adwvel_del2       =   1.3938518210132E-03
(PID.TID 0000.0001) %MON ad_dynstat_adtheta_max       =   3.3881875713153E-03
(PID.TID 0000.0001) %MON ad_dynstat_adtheta_min       =  -3.4460390561536E-03
(PID.TID 0000.0001) %MON ad_dynstat_adtheta_mean      =   6.2043231825296E-07
(PID.TID 0000.0001) %MON ad_dynstat_adtheta_sd        =   1.5057888179507E-04
(PID.TID 0000.0001) %MON ad_dynstat_adtheta_del2      =   9.9609345494994E-06
(PID.TID 0000.0001) %MON ad_dynstat_adsalt_max        =   1.6319035256029E-02
(PID.TID 0000.0001) %MON ad_dynstat_adsalt_min        =  -1.5185406104127E-02
(PID.TID 0000.0001) %MON ad_dynstat_adsalt_mean       =  -2.3764961970792E-06
(PID.TID 0000.0001) %MON ad_dynstat_adsalt_sd         =   7.0172325989637E-04
(PID.TID 0000.0001) %MON ad_dynstat_adsalt_del2       =   4.6014506172974E-05
(PID.TID 0000.0001) %MON ad_dynstat_adsst_max         =   1.3339962943605E-04
(PID.TID 0000.0001) %MON ad_dynstat_adsst_min         =  -1.2011414779816E-04
(PID.TID 0000.0001) %MON ad_dynstat_adsst_mean        =   8.1701051497692E-08
(PID.TID 0000.0001) %MON ad_dynstat_adsst_sd          =   6.1914331061086E-06
(PID.TID 0000.0001) %MON ad_dynstat_adsst_del2        =   5.9658917308604E-07
(PID.TID 0000.0001) %MON ad_dynstat_adsss_max         =   3.6544884995344E-04
(PID.TID 0000.0001) %MON ad_dynstat_adsss_min         =  -4.2002244368027E-04
(PID.TID 0000.0001) %MON ad_dynstat_adsss_mean        =  -5.4074475729330E-07
(PID.TID 0000.0001) %MON ad_dynstat_adsss_sd          =   2.1162046884649E-05
(PID.TID 0000.0001) %MON ad_dynstat_adsss_del2        =   2.1833974109813E-06
(PID.TID 0000.0001) %MON ad_extforcing_adqnet_max     =   0.0000000000000E+00
(PID.TID 0000.0001) %MON ad_extforcing_adqnet_min     =   0.0000000000000E+00
(PID.TID 0000.0001) %MON ad_extforcing_adqnet_mean    =   0.0000000000000E+00
(PID.TID 0000.0001) %MON ad_extforcing_adqnet_sd      =   0.0000000000000E+00
(PID.TID 0000.0001) %MON ad_extforcing_adqnet_del2    =   0.0000000000000E+00
(PID.TID 0000.0001) %MON ad_extforcing_adempmr_max    =   1.5698071211920E+03
(PID.TID 0000.0001) %MON ad_extforcing_adempmr_min    =  -1.7288105631046E+03
(PID.TID 0000.0001) %MON ad_extforcing_adempmr_mean   =   3.7764772809340E-01
(PID.TID 0000.0001) %MON ad_extforcing_adempmr_sd     =   9.0217550381771E+01
(PID.TID 0000.0001) %MON ad_extforcing_adempmr_del2   =   8.0152074132167E+00
(PID.TID 0000.0001) %MON ad_extforcing_adfu_max       =   0.0000000000000E+00
(PID.TID 0000.0001) %MON ad_extforcing_adfu_min       =   0.0000000000000E+00
(PID.TID 0000.0001) %MON ad_extforcing_adfu_mean      =   0.0000000000000E+00
(PID.TID 0000.0001) %MON ad_extforcing_adfu_sd        =   0.0000000000000E+00
(PID.TID 0000.0001) %MON ad_extforcing_adfu_del2      =   0.0000000000000E+00
(PID.TID 0000.0001) %MON ad_extforcing_adfv_max       =   0.0000000000000E+00
(PID.TID 0000.0001) %MON ad_extforcing_adfv_min       =   0.0000000000000E+00
(PID.TID 0000.0001) %MON ad_extforcing_adfv_mean      =   0.0000000000000E+00
(PID.TID 0000.0001) %MON ad_extforcing_adfv_sd        =   0.0000000000000E+00
(PID.TID 0000.0001) %MON ad_extforcing_adfv_del2      =   0.0000000000000E+00
(PID.TID 0000.0001) %MON ad_advcfl_aduvel_max         =   1.0458711757903E-03
(PID.TID 0000.0001) %MON ad_advcfl_advvel_max         =   1.1168572982632E-03
(PID.TID 0000.0001) %MON ad_advcfl_adwvel_max         =   2.8704243814261E+02
(PID.TID 0000.0001) %MON ad_advcfl_adW_hf_max         =   4.0523638326016E+02
(PID.TID 0000.0001) // =======================================================
(PID.TID 0000.0001) // End MONITOR dynamic field statistics
(PID.TID 0000.0001) // =======================================================
 cg2d: Sum(rhs),rhsMax =   5.42874079023647E-12  3.06793516633057E-08
time,SST,SSS,fu,fv,Q,E-P,i0,i1,a,b =   1.0368E+06  7.7737E-01  3.4644E+01 -3.6606E-02 -5.8556E-02  2.6564E+02  0.0000E+00    12     1  9.0000E-01  1.0000E-01
time,fu0,fu1,fu =   1.0368E+06 -4.5368E-02 -3.5633E-02 -3.6606E-02  9.000000000000000E-01  9.999999999999998E-02
 cg2d: Sum(rhs),rhsMax =  -8.53086698504590E-13  1.24221987652398E+01
time,SST,SSS,fu,fv,Q,E-P,i0,i1,a,b =   1.0800E+06  8.0755E-01  3.4656E+01 -3.6444E-02 -5.8339E-02  2.6566E+02  0.0000E+00    12     1  9.1667E-01  8.3333E-02
time,fu0,fu1,fu =   1.0800E+06 -4.5368E-02 -3.5633E-02 -3.6444E-02  9.166666666666666E-01  8.333333333333337E-02
 cg2d: Sum(rhs),rhsMax =  -9.72071381721840E-13  1.24298971531140E+01
time,SST,SSS,fu,fv,Q,E-P,i0,i1,a,b =   1.1232E+06  8.3772E-01  3.4668E+01 -3.6282E-02 -5.8123E-02  2.6568E+02  0.0000E+00    12     1  9.3333E-01  6.6667E-02
time,fu0,fu1,fu =   1.1232E+06 -4.5368E-02 -3.5633E-02 -3.6282E-02  9.333333333333333E-01  6.666666666666665E-02
 cg2d: Sum(rhs),rhsMax =  -1.29428759376715E-12  1.22139653314387E+01
(PID.TID 0000.0001) // =======================================================
(PID.TID 0000.0001) // Begin MONITOR dynamic field statistics
(PID.TID 0000.0001) // =======================================================
(PID.TID 0000.0001) %MON ad_time_tsnumber             =                    27
(PID.TID 0000.0001) %MON ad_time_secondsf             =   1.1664000000000E+06
(PID.TID 0000.0001) %MON ad_dynstat_adeta_max         =   1.3470302604332E-03
(PID.TID 0000.0001) %MON ad_dynstat_adeta_min         =  -4.5208999889118E-03
(PID.TID 0000.0001) %MON ad_dynstat_adeta_mean        =  -9.0088520843341E-07
(PID.TID 0000.0001) %MON ad_dynstat_adeta_sd          =   2.4968109095011E-04
(PID.TID 0000.0001) %MON ad_dynstat_adeta_del2        =   2.7619794106135E-05
(PID.TID 0000.0001) %MON ad_dynstat_aduvel_max        =   1.0096590920721E-02
(PID.TID 0000.0001) %MON ad_dynstat_aduvel_min        =  -8.4899298567682E-03
(PID.TID 0000.0001) %MON ad_dynstat_aduvel_mean       =   1.0522059001637E-04
(PID.TID 0000.0001) %MON ad_dynstat_aduvel_sd         =   6.9935767953773E-04
(PID.TID 0000.0001) %MON ad_dynstat_aduvel_del2       =   3.6936849741675E-05
(PID.TID 0000.0001) %MON ad_dynstat_advvel_max        =   1.4234366026942E-02
(PID.TID 0000.0001) %MON ad_dynstat_advvel_min        =  -8.0029053467570E-03
(PID.TID 0000.0001) %MON ad_dynstat_advvel_mean       =  -1.2859548906360E-04
(PID.TID 0000.0001) %MON ad_dynstat_advvel_sd         =   9.8110887228893E-04
(PID.TID 0000.0001) %MON ad_dynstat_advvel_del2       =   7.6612410518928E-05
(PID.TID 0000.0001) %MON ad_dynstat_adwvel_max        =   1.4058723997638E+00
(PID.TID 0000.0001) %MON ad_dynstat_adwvel_min        =  -7.7845569297434E-01
(PID.TID 0000.0001) %MON ad_dynstat_adwvel_mean       =   1.9837922495494E-04
(PID.TID 0000.0001) %MON ad_dynstat_adwvel_sd         =   2.2941988337688E-02
(PID.TID 0000.0001) %MON ad_dynstat_adwvel_del2       =   1.3796420256080E-03
(PID.TID 0000.0001) %MON ad_dynstat_adtheta_max       =   3.3845931584033E-03
(PID.TID 0000.0001) %MON ad_dynstat_adtheta_min       =  -3.4269915393409E-03
(PID.TID 0000.0001) %MON ad_dynstat_adtheta_mean      =   6.2472039464847E-07
(PID.TID 0000.0001) %MON ad_dynstat_adtheta_sd        =   1.4995021651172E-04
(PID.TID 0000.0001) %MON ad_dynstat_adtheta_del2      =   9.9256764007458E-06
(PID.TID 0000.0001) %MON ad_dynstat_adsalt_max        =   1.6402654616745E-02
(PID.TID 0000.0001) %MON ad_dynstat_adsalt_min        =  -1.5205886480977E-02
(PID.TID 0000.0001) %MON ad_dynstat_adsalt_mean       =  -2.4313100496393E-06
(PID.TID 0000.0001) %MON ad_dynstat_adsalt_sd         =   6.9952221470526E-04
(PID.TID 0000.0001) %MON ad_dynstat_adsalt_del2       =   4.5957088667419E-05
(PID.TID 0000.0001) %MON ad_dynstat_adsst_max         =   1.4974951593739E-04
(PID.TID 0000.0001) %MON ad_dynstat_adsst_min         =  -1.1854435052032E-04
(PID.TID 0000.0001) %MON ad_dynstat_adsst_mean        =   6.3862517816807E-08
(PID.TID 0000.0001) %MON ad_dynstat_adsst_sd          =   6.1649623648910E-06
(PID.TID 0000.0001) %MON ad_dynstat_adsst_del2        =   5.9270998508920E-07
(PID.TID 0000.0001) %MON ad_dynstat_adsss_max         =   3.6164313656437E-04
(PID.TID 0000.0001) %MON ad_dynstat_adsss_min         =  -4.3357719797431E-04
(PID.TID 0000.0001) %MON ad_dynstat_adsss_mean        =  -5.0431130691266E-07
(PID.TID 0000.0001) %MON ad_dynstat_adsss_sd          =   2.0908874818310E-05
(PID.TID 0000.0001) %MON ad_dynstat_adsss_del2        =   2.1764247665405E-06
(PID.TID 0000.0001) %MON ad_extforcing_adqnet_max     =   0.0000000000000E+00
(PID.TID 0000.0001) %MON ad_extforcing_adqnet_min     =   0.0000000000000E+00
(PID.TID 0000.0001) %MON ad_extforcing_adqnet_mean    =   0.0000000000000E+00
(PID.TID 0000.0001) %MON ad_extforcing_adqnet_sd      =   0.0000000000000E+00
(PID.TID 0000.0001) %MON ad_extforcing_adqnet_del2    =   0.0000000000000E+00
(PID.TID 0000.0001) %MON ad_extforcing_adempmr_max    =   1.5857994395252E+03
(PID.TID 0000.0001) %MON ad_extforcing_adempmr_min    =  -1.7417919534828E+03
(PID.TID 0000.0001) %MON ad_extforcing_adempmr_mean   =   3.6263427099753E-01
(PID.TID 0000.0001) %MON ad_extforcing_adempmr_sd     =   9.0636196540718E+01
(PID.TID 0000.0001) %MON ad_extforcing_adempmr_del2   =   8.0447685288652E+00
(PID.TID 0000.0001) %MON ad_extforcing_adfu_max       =   0.0000000000000E+00
(PID.TID 0000.0001) %MON ad_extforcing_adfu_min       =   0.0000000000000E+00
(PID.TID 0000.0001) %MON ad_extforcing_adfu_mean      =   0.0000000000000E+00
(PID.TID 0000.0001) %MON ad_extforcing_adfu_sd        =   0.0000000000000E+00
(PID.TID 0000.0001) %MON ad_extforcing_adfu_del2      =   0.0000000000000E+00
(PID.TID 0000.0001) %MON ad_extforcing_adfv_max       =   0.0000000000000E+00
(PID.TID 0000.0001) %MON ad_extforcing_adfv_min       =   0.0000000000000E+00
(PID.TID 0000.0001) %MON ad_extforcing_adfv_mean      =   0.0000000000000E+00
(PID.TID 0000.0001) %MON ad_extforcing_adfv_sd        =   0.0000000000000E+00
(PID.TID 0000.0001) %MON ad_extforcing_adfv_del2      =   0.0000000000000E+00
(PID.TID 0000.0001) %MON ad_advcfl_aduvel_max         =   1.0912431463709E-03
(PID.TID 0000.0001) %MON ad_advcfl_advvel_max         =   1.3827545136251E-03
(PID.TID 0000.0001) %MON ad_advcfl_adwvel_max         =   2.8547627431694E+02
(PID.TID 0000.0001) %MON ad_advcfl_adW_hf_max         =   4.0302532844745E+02
(PID.TID 0000.0001) // =======================================================
(PID.TID 0000.0001) // End MONITOR dynamic field statistics
(PID.TID 0000.0001) // =======================================================
 cg2d: Sum(rhs),rhsMax =   5.55946261249218E-12  3.03922863754327E-08
(PID.TID 0000.0001) // =======================================================
(PID.TID 0000.0001) // Begin MONITOR dynamic field statistics
(PID.TID 0000.0001) // =======================================================
(PID.TID 0000.0001) %MON ad_time_tsnumber             =                    26
(PID.TID 0000.0001) %MON ad_time_secondsf             =   1.1232000000000E+06
(PID.TID 0000.0001) %MON ad_dynstat_adeta_max         =   1.3050084986609E-03
(PID.TID 0000.0001) %MON ad_dynstat_adeta_min         =  -4.3917278045288E-03
(PID.TID 0000.0001) %MON ad_dynstat_adeta_mean        =  -5.3731947811479E-07
(PID.TID 0000.0001) %MON ad_dynstat_adeta_sd          =   2.4600364061086E-04
(PID.TID 0000.0001) %MON ad_dynstat_adeta_del2        =   2.7283881396406E-05
(PID.TID 0000.0001) %MON ad_dynstat_aduvel_max        =   1.0477727263643E-02
(PID.TID 0000.0001) %MON ad_dynstat_aduvel_min        =  -8.3191722748945E-03
(PID.TID 0000.0001) %MON ad_dynstat_aduvel_mean       =   1.0891343134601E-04
(PID.TID 0000.0001) %MON ad_dynstat_aduvel_sd         =   6.9934492660670E-04
(PID.TID 0000.0001) %MON ad_dynstat_aduvel_del2       =   3.6824243704587E-05
(PID.TID 0000.0001) %MON ad_dynstat_advvel_max        =   1.6840127436492E-02
(PID.TID 0000.0001) %MON ad_dynstat_advvel_min        =  -9.1997818288782E-03
(PID.TID 0000.0001) %MON ad_dynstat_advvel_mean       =  -1.3469393328370E-04
(PID.TID 0000.0001) %MON ad_dynstat_advvel_sd         =   1.0278589754305E-03
(PID.TID 0000.0001) %MON ad_dynstat_advvel_del2       =   8.2460930505643E-05
(PID.TID 0000.0001) %MON ad_dynstat_adwvel_max        =   1.3996492080150E+00
(PID.TID 0000.0001) %MON ad_dynstat_adwvel_min        =  -7.7858362898291E-01
(PID.TID 0000.0001) %MON ad_dynstat_adwvel_mean       =   1.9367287613661E-04
(PID.TID 0000.0001) %MON ad_dynstat_adwvel_sd         =   2.2605424331175E-02
(PID.TID 0000.0001) %MON ad_dynstat_adwvel_del2       =   1.3562567039228E-03
(PID.TID 0000.0001) %MON ad_dynstat_adtheta_max       =   3.3862851324636E-03
(PID.TID 0000.0001) %MON ad_dynstat_adtheta_min       =  -3.4140156145847E-03
(PID.TID 0000.0001) %MON ad_dynstat_adtheta_mean      =   6.2905935123119E-07
(PID.TID 0000.0001) %MON ad_dynstat_adtheta_sd        =   1.4940084098253E-04
(PID.TID 0000.0001) %MON ad_dynstat_adtheta_del2      =   9.8516860860039E-06
(PID.TID 0000.0001) %MON ad_dynstat_adsalt_max        =   1.6474288884339E-02
(PID.TID 0000.0001) %MON ad_dynstat_adsalt_min        =  -1.5244273710063E-02
(PID.TID 0000.0001) %MON ad_dynstat_adsalt_mean       =  -2.4917925873782E-06
(PID.TID 0000.0001) %MON ad_dynstat_adsalt_sd         =   6.9770515018214E-04
(PID.TID 0000.0001) %MON ad_dynstat_adsalt_del2       =   4.5725569694567E-05
(PID.TID 0000.0001) %MON ad_dynstat_adsst_max         =   1.6767730842610E-04
(PID.TID 0000.0001) %MON ad_dynstat_adsst_min         =  -1.1679051665507E-04
(PID.TID 0000.0001) %MON ad_dynstat_adsst_mean        =   5.8176194504471E-08
(PID.TID 0000.0001) %MON ad_dynstat_adsst_sd          =   6.3508116680633E-06
(PID.TID 0000.0001) %MON ad_dynstat_adsst_del2        =   5.9906219835637E-07
(PID.TID 0000.0001) %MON ad_dynstat_adsss_max         =   3.5730045776528E-04
(PID.TID 0000.0001) %MON ad_dynstat_adsss_min         =  -4.8392822157419E-04
(PID.TID 0000.0001) %MON ad_dynstat_adsss_mean        =  -5.0256570725984E-07
(PID.TID 0000.0001) %MON ad_dynstat_adsss_sd          =   2.1351932427773E-05
(PID.TID 0000.0001) %MON ad_dynstat_adsss_del2        =   2.1994488665865E-06
(PID.TID 0000.0001) %MON ad_extforcing_adqnet_max     =   0.0000000000000E+00
(PID.TID 0000.0001) %MON ad_extforcing_adqnet_min     =   0.0000000000000E+00
(PID.TID 0000.0001) %MON ad_extforcing_adqnet_mean    =   0.0000000000000E+00
(PID.TID 0000.0001) %MON ad_extforcing_adqnet_sd      =   0.0000000000000E+00
(PID.TID 0000.0001) %MON ad_extforcing_adqnet_del2    =   0.0000000000000E+00
(PID.TID 0000.0001) %MON ad_extforcing_adempmr_max    =   1.6016458564271E+03
(PID.TID 0000.0001) %MON ad_extforcing_adempmr_min    =  -1.7557236148012E+03
(PID.TID 0000.0001) %MON ad_extforcing_adempmr_mean   =   3.4696911712616E-01
(PID.TID 0000.0001) %MON ad_extforcing_adempmr_sd     =   9.1079502102115E+01
(PID.TID 0000.0001) %MON ad_extforcing_adempmr_del2   =   8.0784562129260E+00
(PID.TID 0000.0001) %MON ad_extforcing_adfu_max       =   0.0000000000000E+00
(PID.TID 0000.0001) %MON ad_extforcing_adfu_min       =   0.0000000000000E+00
(PID.TID 0000.0001) %MON ad_extforcing_adfu_mean      =   0.0000000000000E+00
(PID.TID 0000.0001) %MON ad_extforcing_adfu_sd        =   0.0000000000000E+00
(PID.TID 0000.0001) %MON ad_extforcing_adfu_del2      =   0.0000000000000E+00
(PID.TID 0000.0001) %MON ad_extforcing_adfv_max       =   0.0000000000000E+00
(PID.TID 0000.0001) %MON ad_extforcing_adfv_min       =   0.0000000000000E+00
(PID.TID 0000.0001) %MON ad_extforcing_adfv_mean      =   0.0000000000000E+00
(PID.TID 0000.0001) %MON ad_extforcing_adfv_sd        =   0.0000000000000E+00
(PID.TID 0000.0001) %MON ad_extforcing_adfv_del2      =   0.0000000000000E+00
(PID.TID 0000.0001) %MON ad_advcfl_aduvel_max         =   1.1324364981975E-03
(PID.TID 0000.0001) %MON ad_advcfl_advvel_max         =   1.6358833388687E-03
(PID.TID 0000.0001) %MON ad_advcfl_adwvel_max         =   2.8448777605579E+02
(PID.TID 0000.0001) %MON ad_advcfl_adW_hf_max         =   4.0162980149053E+02
(PID.TID 0000.0001) // =======================================================
(PID.TID 0000.0001) // End MONITOR dynamic field statistics
(PID.TID 0000.0001) // =======================================================
 cg2d: Sum(rhs),rhsMax =   5.66725139039548E-12  3.00880208098360E-08
(PID.TID 0000.0001) // =======================================================
(PID.TID 0000.0001) // Begin MONITOR dynamic field statistics
(PID.TID 0000.0001) // =======================================================
(PID.TID 0000.0001) %MON ad_time_tsnumber             =                    25
(PID.TID 0000.0001) %MON ad_time_secondsf             =   1.0800000000000E+06
(PID.TID 0000.0001) %MON ad_dynstat_adeta_max         =   1.2520767503460E-03
(PID.TID 0000.0001) %MON ad_dynstat_adeta_min         =  -4.2399389090053E-03
(PID.TID 0000.0001) %MON ad_dynstat_adeta_mean        =  -1.4325965941201E-07
(PID.TID 0000.0001) %MON ad_dynstat_adeta_sd          =   2.4217473333509E-04
(PID.TID 0000.0001) %MON ad_dynstat_adeta_del2        =   2.6836157010448E-05
(PID.TID 0000.0001) %MON ad_dynstat_aduvel_max        =   1.0816884713701E-02
(PID.TID 0000.0001) %MON ad_dynstat_aduvel_min        =  -8.1069314950322E-03
(PID.TID 0000.0001) %MON ad_dynstat_aduvel_mean       =   1.1264082434856E-04
(PID.TID 0000.0001) %MON ad_dynstat_aduvel_sd         =   6.9917555996592E-04
(PID.TID 0000.0001) %MON ad_dynstat_aduvel_del2       =   3.6779276823896E-05
(PID.TID 0000.0001) %MON ad_dynstat_advvel_max        =   1.9293668442230E-02
(PID.TID 0000.0001) %MON ad_dynstat_advvel_min        =  -1.0563475365041E-02
(PID.TID 0000.0001) %MON ad_dynstat_advvel_mean       =  -1.4021068479696E-04
(PID.TID 0000.0001) %MON ad_dynstat_advvel_sd         =   1.0804138304877E-03
(PID.TID 0000.0001) %MON ad_dynstat_advvel_del2       =   8.8403761545936E-05
(PID.TID 0000.0001) %MON ad_dynstat_adwvel_max        =   1.3962938773970E+00
(PID.TID 0000.0001) %MON ad_dynstat_adwvel_min        =  -7.7992508824602E-01
(PID.TID 0000.0001) %MON ad_dynstat_adwvel_mean       =   1.8924505435603E-04
(PID.TID 0000.0001) %MON ad_dynstat_adwvel_sd         =   2.2278345488661E-02
(PID.TID 0000.0001) %MON ad_dynstat_adwvel_del2       =   1.3258850460361E-03
(PID.TID 0000.0001) %MON ad_dynstat_adtheta_max       =   3.3935639521079E-03
(PID.TID 0000.0001) %MON ad_dynstat_adtheta_min       =  -3.4070194541430E-03
(PID.TID 0000.0001) %MON ad_dynstat_adtheta_mean      =   6.3366073752607E-07
(PID.TID 0000.0001) %MON ad_dynstat_adtheta_sd        =   1.4896239560977E-04
(PID.TID 0000.0001) %MON ad_dynstat_adtheta_del2      =   9.7379031781268E-06
(PID.TID 0000.0001) %MON ad_dynstat_adsalt_max        =   1.6533719889633E-02
(PID.TID 0000.0001) %MON ad_dynstat_adsalt_min        =  -1.5301703870692E-02
(PID.TID 0000.0001) %MON ad_dynstat_adsalt_mean       =  -2.5586829807277E-06
(PID.TID 0000.0001) %MON ad_dynstat_adsalt_sd         =   6.9639947333325E-04
(PID.TID 0000.0001) %MON ad_dynstat_adsalt_del2       =   4.5312429201985E-05
(PID.TID 0000.0001) %MON ad_dynstat_adsst_max         =   1.8839153901982E-04
(PID.TID 0000.0001) %MON ad_dynstat_adsst_min         =  -1.1487794327521E-04
(PID.TID 0000.0001) %MON ad_dynstat_adsst_mean        =   5.5495321524070E-08
(PID.TID 0000.0001) %MON ad_dynstat_adsst_sd          =   6.6143889186522E-06
(PID.TID 0000.0001) %MON ad_dynstat_adsst_del2        =   6.0753142568186E-07
(PID.TID 0000.0001) %MON ad_dynstat_adsss_max         =   3.5249999728383E-04
(PID.TID 0000.0001) %MON ad_dynstat_adsss_min         =  -5.4222186442780E-04
(PID.TID 0000.0001) %MON ad_dynstat_adsss_mean        =  -5.0994025235054E-07
(PID.TID 0000.0001) %MON ad_dynstat_adsss_sd          =   2.2006004277565E-05
(PID.TID 0000.0001) %MON ad_dynstat_adsss_del2        =   2.2288126265443E-06
(PID.TID 0000.0001) %MON ad_extforcing_adqnet_max     =   0.0000000000000E+00
(PID.TID 0000.0001) %MON ad_extforcing_adqnet_min     =   0.0000000000000E+00
(PID.TID 0000.0001) %MON ad_extforcing_adqnet_mean    =   0.0000000000000E+00
(PID.TID 0000.0001) %MON ad_extforcing_adqnet_sd      =   0.0000000000000E+00
(PID.TID 0000.0001) %MON ad_extforcing_adqnet_del2    =   0.0000000000000E+00
(PID.TID 0000.0001) %MON ad_extforcing_adempmr_max    =   1.6173260833603E+03
(PID.TID 0000.0001) %MON ad_extforcing_adempmr_min    =  -1.7695403591543E+03
(PID.TID 0000.0001) %MON ad_extforcing_adempmr_mean   =   3.3098104076170E-01
(PID.TID 0000.0001) %MON ad_extforcing_adempmr_sd     =   9.1539002672421E+01
(PID.TID 0000.0001) %MON ad_extforcing_adempmr_del2   =   8.1149091467145E+00
(PID.TID 0000.0001) %MON ad_extforcing_adfu_max       =   0.0000000000000E+00
(PID.TID 0000.0001) %MON ad_extforcing_adfu_min       =   0.0000000000000E+00
(PID.TID 0000.0001) %MON ad_extforcing_adfu_mean      =   0.0000000000000E+00
(PID.TID 0000.0001) %MON ad_extforcing_adfu_sd        =   0.0000000000000E+00
(PID.TID 0000.0001) %MON ad_extforcing_adfu_del2      =   0.0000000000000E+00
(PID.TID 0000.0001) %MON ad_extforcing_adfv_max       =   0.0000000000000E+00
(PID.TID 0000.0001) %MON ad_extforcing_adfv_min       =   0.0000000000000E+00
(PID.TID 0000.0001) %MON ad_extforcing_adfv_mean      =   0.0000000000000E+00
(PID.TID 0000.0001) %MON ad_extforcing_adfv_sd        =   0.0000000000000E+00
(PID.TID 0000.0001) %MON ad_extforcing_adfv_del2      =   0.0000000000000E+00
(PID.TID 0000.0001) %MON ad_advcfl_aduvel_max         =   1.1690927563170E-03
(PID.TID 0000.0001) %MON ad_advcfl_advvel_max         =   1.8742251725427E-03
(PID.TID 0000.0001) %MON ad_advcfl_adwvel_max         =   2.8407155344368E+02
(PID.TID 0000.0001) %MON ad_advcfl_adW_hf_max         =   4.0104219309697E+02
(PID.TID 0000.0001) // =======================================================
(PID.TID 0000.0001) // End MONITOR dynamic field statistics
(PID.TID 0000.0001) // =======================================================
 cg2d: Sum(rhs),rhsMax =   5.75046954498504E-12  2.97777901731858E-08
time,SST,SSS,fu,fv,Q,E-P,i0,i1,a,b =   9.0720E+05  6.8684E-01  3.4609E+01 -3.7093E-02 -5.9205E-02  2.6557E+02  0.0000E+00    12     1  8.5000E-01  1.5000E-01
time,fu0,fu1,fu =   9.0720E+05 -4.5368E-02 -3.5633E-02 -3.7093E-02  8.500000000000000E-01  1.500000000000000E-01
 cg2d: Sum(rhs),rhsMax =  -8.32259608452013E-13  1.11482726022290E+01
time,SST,SSS,fu,fv,Q,E-P,i0,i1,a,b =   9.5040E+05  7.1702E-01  3.4621E+01 -3.6931E-02 -5.8989E-02  2.6559E+02  0.0000E+00    12     1  8.6667E-01  1.3333E-01
time,fu0,fu1,fu =   9.5040E+05 -4.5368E-02 -3.5633E-02 -3.6931E-02  8.666666666666667E-01  1.333333333333333E-01
 cg2d: Sum(rhs),rhsMax =  -7.50698114782011E-13  1.17644190526986E+01
time,SST,SSS,fu,fv,Q,E-P,i0,i1,a,b =   9.9360E+05  7.4719E-01  3.4633E+01 -3.6769E-02 -5.8772E-02  2.6561E+02  0.0000E+00    12     1  8.8333E-01  1.1667E-01
time,fu0,fu1,fu =   9.9360E+05 -4.5368E-02 -3.5633E-02 -3.6769E-02  8.833333333333333E-01  1.166666666666667E-01
 cg2d: Sum(rhs),rhsMax =  -6.89334006542808E-13  1.21959720875421E+01
(PID.TID 0000.0001) // =======================================================
(PID.TID 0000.0001) // Begin MONITOR dynamic field statistics
(PID.TID 0000.0001) // =======================================================
(PID.TID 0000.0001) %MON ad_time_tsnumber             =                    24
(PID.TID 0000.0001) %MON ad_time_secondsf             =   1.0368000000000E+06
(PID.TID 0000.0001) %MON ad_dynstat_adeta_max         =   1.2256682365693E-03
(PID.TID 0000.0001) %MON ad_dynstat_adeta_min         =  -4.0678065252617E-03
(PID.TID 0000.0001) %MON ad_dynstat_adeta_mean        =   2.7733347932070E-07
(PID.TID 0000.0001) %MON ad_dynstat_adeta_sd          =   2.3833587709306E-04
(PID.TID 0000.0001) %MON ad_dynstat_adeta_del2        =   2.6310100872212E-05
(PID.TID 0000.0001) %MON ad_dynstat_aduvel_max        =   1.1111399677751E-02
(PID.TID 0000.0001) %MON ad_dynstat_aduvel_min        =  -7.8591422053876E-03
(PID.TID 0000.0001) %MON ad_dynstat_aduvel_mean       =   1.1635390305011E-04
(PID.TID 0000.0001) %MON ad_dynstat_aduvel_sd         =   6.9886375117927E-04
(PID.TID 0000.0001) %MON ad_dynstat_aduvel_del2       =   3.6808226088470E-05
(PID.TID 0000.0001) %MON ad_dynstat_advvel_max        =   2.1576133589053E-02
(PID.TID 0000.0001) %MON ad_dynstat_advvel_min        =  -1.2100754253285E-02
(PID.TID 0000.0001) %MON ad_dynstat_advvel_mean       =  -1.4503999893161E-04
(PID.TID 0000.0001) %MON ad_dynstat_advvel_sd         =   1.1359659322864E-03
(PID.TID 0000.0001) %MON ad_dynstat_advvel_del2       =   9.3924080216440E-05
(PID.TID 0000.0001) %MON ad_dynstat_adwvel_max        =   1.3957351789553E+00
(PID.TID 0000.0001) %MON ad_dynstat_adwvel_min        =  -7.8267542746186E-01
(PID.TID 0000.0001) %MON ad_dynstat_adwvel_mean       =   1.8514955913225E-04
(PID.TID 0000.0001) %MON ad_dynstat_adwvel_sd         =   2.1977457113246E-02
(PID.TID 0000.0001) %MON ad_dynstat_adwvel_del2       =   1.2873932266217E-03
(PID.TID 0000.0001) %MON ad_dynstat_adtheta_max       =   3.4060806692667E-03
(PID.TID 0000.0001) %MON ad_dynstat_adtheta_min       =  -3.4058034764128E-03
(PID.TID 0000.0001) %MON ad_dynstat_adtheta_mean      =   6.3863839349762E-07
(PID.TID 0000.0001) %MON ad_dynstat_adtheta_sd        =   1.4866979245893E-04
(PID.TID 0000.0001) %MON ad_dynstat_adtheta_del2      =   9.5890543383274E-06
(PID.TID 0000.0001) %MON ad_dynstat_adsalt_max        =   1.6580826962831E-02
(PID.TID 0000.0001) %MON ad_dynstat_adsalt_min        =  -1.5376326888106E-02
(PID.TID 0000.0001) %MON ad_dynstat_adsalt_mean       =  -2.6321436782017E-06
(PID.TID 0000.0001) %MON ad_dynstat_adsalt_sd         =   6.9574713363969E-04
(PID.TID 0000.0001) %MON ad_dynstat_adsalt_del2       =   4.4771079302741E-05
(PID.TID 0000.0001) %MON ad_dynstat_adsst_max         =   2.1216241073810E-04
(PID.TID 0000.0001) %MON ad_dynstat_adsst_min         =  -1.1288515558463E-04
(PID.TID 0000.0001) %MON ad_dynstat_adsst_mean        =   5.6169550708065E-08
(PID.TID 0000.0001) %MON ad_dynstat_adsst_sd          =   6.9669936855384E-06
(PID.TID 0000.0001) %MON ad_dynstat_adsst_del2        =   6.1957505886309E-07
(PID.TID 0000.0001) %MON ad_dynstat_adsss_max         =   3.4747388202923E-04
(PID.TID 0000.0001) %MON ad_dynstat_adsss_min         =  -6.0927957161542E-04
(PID.TID 0000.0001) %MON ad_dynstat_adsss_mean        =  -5.2735695906636E-07
(PID.TID 0000.0001) %MON ad_dynstat_adsss_sd          =   2.2899798865637E-05
(PID.TID 0000.0001) %MON ad_dynstat_adsss_del2        =   2.2710227657050E-06
(PID.TID 0000.0001) %MON ad_extforcing_adqnet_max     =   0.0000000000000E+00
(PID.TID 0000.0001) %MON ad_extforcing_adqnet_min     =   0.0000000000000E+00
(PID.TID 0000.0001) %MON ad_extforcing_adqnet_mean    =   0.0000000000000E+00
(PID.TID 0000.0001) %MON ad_extforcing_adqnet_sd      =   0.0000000000000E+00
(PID.TID 0000.0001) %MON ad_extforcing_adqnet_del2    =   0.0000000000000E+00
(PID.TID 0000.0001) %MON ad_extforcing_adempmr_max    =   1.6328248664385E+03
(PID.TID 0000.0001) %MON ad_extforcing_adempmr_min    =  -1.7833317116328E+03
(PID.TID 0000.0001) %MON ad_extforcing_adempmr_mean   =   3.1447596125008E-01
(PID.TID 0000.0001) %MON ad_extforcing_adempmr_sd     =   9.2018208414497E+01
(PID.TID 0000.0001) %MON ad_extforcing_adempmr_del2   =   8.1544599137783E+00
(PID.TID 0000.0001) %MON ad_extforcing_adfu_max       =   0.0000000000000E+00
(PID.TID 0000.0001) %MON ad_extforcing_adfu_min       =   0.0000000000000E+00
(PID.TID 0000.0001) %MON ad_extforcing_adfu_mean      =   0.0000000000000E+00
(PID.TID 0000.0001) %MON ad_extforcing_adfu_sd        =   0.0000000000000E+00
(PID.TID 0000.0001) %MON ad_extforcing_adfu_del2      =   0.0000000000000E+00
(PID.TID 0000.0001) %MON ad_extforcing_adfv_max       =   0.0000000000000E+00
(PID.TID 0000.0001) %MON ad_extforcing_adfv_min       =   0.0000000000000E+00
(PID.TID 0000.0001) %MON ad_extforcing_adfv_mean      =   0.0000000000000E+00
(PID.TID 0000.0001) %MON ad_extforcing_adfv_sd        =   0.0000000000000E+00
(PID.TID 0000.0001) %MON ad_extforcing_adfv_del2      =   0.0000000000000E+00
(PID.TID 0000.0001) %MON ad_advcfl_aduvel_max         =   1.2009240386327E-03
(PID.TID 0000.0001) %MON ad_advcfl_advvel_max         =   2.0959483583866E-03
(PID.TID 0000.0001) %MON ad_advcfl_adwvel_max         =   2.8421506884021E+02
(PID.TID 0000.0001) %MON ad_advcfl_adW_hf_max         =   4.0124480306853E+02
(PID.TID 0000.0001) // =======================================================
(PID.TID 0000.0001) // End MONITOR dynamic field statistics
(PID.TID 0000.0001) // =======================================================
 cg2d: Sum(rhs),rhsMax =   5.88899068398874E-12  2.94716330828273E-08
(PID.TID 0000.0001) // =======================================================
(PID.TID 0000.0001) // Begin MONITOR dynamic field statistics
(PID.TID 0000.0001) // =======================================================
(PID.TID 0000.0001) %MON ad_time_tsnumber             =                    23
(PID.TID 0000.0001) %MON ad_time_secondsf             =   9.9360000000000E+05
(PID.TID 0000.0001) %MON ad_dynstat_adeta_max         =   1.1976229636511E-03
(PID.TID 0000.0001) %MON ad_dynstat_adeta_min         =  -3.8778404473021E-03
(PID.TID 0000.0001) %MON ad_dynstat_adeta_mean        =   7.2054855285080E-07
(PID.TID 0000.0001) %MON ad_dynstat_adeta_sd          =   2.3463923996038E-04
(PID.TID 0000.0001) %MON ad_dynstat_adeta_del2        =   2.5798453699087E-05
(PID.TID 0000.0001) %MON ad_dynstat_aduvel_max        =   1.1359272827023E-02
(PID.TID 0000.0001) %MON ad_dynstat_aduvel_min        =  -7.6245945072117E-03
(PID.TID 0000.0001) %MON ad_dynstat_aduvel_mean       =   1.1999772963431E-04
(PID.TID 0000.0001) %MON ad_dynstat_aduvel_sd         =   6.9838327345974E-04
(PID.TID 0000.0001) %MON ad_dynstat_aduvel_del2       =   3.6896929442649E-05
(PID.TID 0000.0001) %MON ad_dynstat_advvel_max        =   2.3670636335382E-02
(PID.TID 0000.0001) %MON ad_dynstat_advvel_min        =  -1.3549690058256E-02
(PID.TID 0000.0001) %MON ad_dynstat_advvel_mean       =  -1.4908550533021E-04
(PID.TID 0000.0001) %MON ad_dynstat_advvel_sd         =   1.1919867403133E-03
(PID.TID 0000.0001) %MON ad_dynstat_advvel_del2       =   9.8865832619253E-05
(PID.TID 0000.0001) %MON ad_dynstat_adwvel_max        =   1.3978303803627E+00
(PID.TID 0000.0001) %MON ad_dynstat_adwvel_min        =  -7.8662741937810E-01
(PID.TID 0000.0001) %MON ad_dynstat_adwvel_mean       =   1.8138866964788E-04
(PID.TID 0000.0001) %MON ad_dynstat_adwvel_sd         =   2.1720043978553E-02
(PID.TID 0000.0001) %MON ad_dynstat_adwvel_del2       =   1.2426704269788E-03
(PID.TID 0000.0001) %MON ad_dynstat_adtheta_max       =   3.4234716292855E-03
(PID.TID 0000.0001) %MON ad_dynstat_adtheta_min       =  -3.4100704878936E-03
(PID.TID 0000.0001) %MON ad_dynstat_adtheta_mean      =   6.4409370324873E-07
(PID.TID 0000.0001) %MON ad_dynstat_adtheta_sd        =   1.4855976145057E-04
(PID.TID 0000.0001) %MON ad_dynstat_adtheta_del2      =   9.4193780800768E-06
(PID.TID 0000.0001) %MON ad_dynstat_adsalt_max        =   1.6615607329869E-02
(PID.TID 0000.0001) %MON ad_dynstat_adsalt_min        =  -1.5466290630036E-02
(PID.TID 0000.0001) %MON ad_dynstat_adsalt_mean       =  -2.7121326941471E-06
(PID.TID 0000.0001) %MON ad_dynstat_adsalt_sd         =   6.9589850032846E-04
(PID.TID 0000.0001) %MON ad_dynstat_adsalt_del2       =   4.4129714686501E-05
(PID.TID 0000.0001) %MON ad_dynstat_adsst_max         =   2.3575039713839E-04
(PID.TID 0000.0001) %MON ad_dynstat_adsst_min         =  -1.1093177341458E-04
(PID.TID 0000.0001) %MON ad_dynstat_adsst_mean        =   5.5535441564387E-08
(PID.TID 0000.0001) %MON ad_dynstat_adsst_sd          =   7.3509823435976E-06
(PID.TID 0000.0001) %MON ad_dynstat_adsst_del2        =   6.3158785118903E-07
(PID.TID 0000.0001) %MON ad_dynstat_adsss_max         =   3.4257037059188E-04
(PID.TID 0000.0001) %MON ad_dynstat_adsss_min         =  -6.7622742047175E-04
(PID.TID 0000.0001) %MON ad_dynstat_adsss_mean        =  -5.4117577592305E-07
(PID.TID 0000.0001) %MON ad_dynstat_adsss_sd          =   2.3879996210875E-05
(PID.TID 0000.0001) %MON ad_dynstat_adsss_del2        =   2.3197890412646E-06
(PID.TID 0000.0001) %MON ad_extforcing_adqnet_max     =   0.0000000000000E+00
(PID.TID 0000.0001) %MON ad_extforcing_adqnet_min     =   0.0000000000000E+00
(PID.TID 0000.0001) %MON ad_extforcing_adqnet_mean    =   0.0000000000000E+00
(PID.TID 0000.0001) %MON ad_extforcing_adqnet_sd      =   0.0000000000000E+00
(PID.TID 0000.0001) %MON ad_extforcing_adqnet_del2    =   0.0000000000000E+00
(PID.TID 0000.0001) %MON ad_extforcing_adempmr_max    =   1.6481367063742E+03
(PID.TID 0000.0001) %MON ad_extforcing_adempmr_min    =  -1.7971755779705E+03
(PID.TID 0000.0001) %MON ad_extforcing_adempmr_mean   =   2.9715820270965E-01
(PID.TID 0000.0001) %MON ad_extforcing_adempmr_sd     =   9.2520549522008E+01
(PID.TID 0000.0001) %MON ad_extforcing_adempmr_del2   =   8.1976313166068E+00
(PID.TID 0000.0001) %MON ad_extforcing_adfu_max       =   0.0000000000000E+00
(PID.TID 0000.0001) %MON ad_extforcing_adfu_min       =   0.0000000000000E+00
(PID.TID 0000.0001) %MON ad_extforcing_adfu_mean      =   0.0000000000000E+00
(PID.TID 0000.0001) %MON ad_extforcing_adfu_sd        =   0.0000000000000E+00
(PID.TID 0000.0001) %MON ad_extforcing_adfu_del2      =   0.0000000000000E+00
(PID.TID 0000.0001) %MON ad_extforcing_adfv_max       =   0.0000000000000E+00
(PID.TID 0000.0001) %MON ad_extforcing_adfv_min       =   0.0000000000000E+00
(PID.TID 0000.0001) %MON ad_extforcing_adfv_mean      =   0.0000000000000E+00
(PID.TID 0000.0001) %MON ad_extforcing_adfv_sd        =   0.0000000000000E+00
(PID.TID 0000.0001) %MON ad_extforcing_adfv_del2      =   0.0000000000000E+00
(PID.TID 0000.0001) %MON ad_advcfl_aduvel_max         =   1.2277142569783E-03
(PID.TID 0000.0001) %MON ad_advcfl_advvel_max         =   2.2994125042997E-03
(PID.TID 0000.0001) %MON ad_advcfl_adwvel_max         =   2.8489960142500E+02
(PID.TID 0000.0001) %MON ad_advcfl_adW_hf_max         =   4.0221120201177E+02
(PID.TID 0000.0001) // =======================================================
(PID.TID 0000.0001) // End MONITOR dynamic field statistics
(PID.TID 0000.0001) // =======================================================
 cg2d: Sum(rhs),rhsMax =   5.98198574008890E-12  2.91781330945618E-08
(PID.TID 0000.0001) // =======================================================
(PID.TID 0000.0001) // Begin MONITOR dynamic field statistics
(PID.TID 0000.0001) // =======================================================
(PID.TID 0000.0001) %MON ad_time_tsnumber             =                    22
(PID.TID 0000.0001) %MON ad_time_secondsf             =   9.5040000000000E+05
(PID.TID 0000.0001) %MON ad_dynstat_adeta_max         =   1.2208082549321E-03
(PID.TID 0000.0001) %MON ad_dynstat_adeta_min         =  -3.6727088527246E-03
(PID.TID 0000.0001) %MON ad_dynstat_adeta_mean        =   1.1825493748961E-06
(PID.TID 0000.0001) %MON ad_dynstat_adeta_sd          =   2.3124362474832E-04
(PID.TID 0000.0001) %MON ad_dynstat_adeta_del2        =   2.5306246832928E-05
(PID.TID 0000.0001) %MON ad_dynstat_aduvel_max        =   1.1559113505298E-02
(PID.TID 0000.0001) %MON ad_dynstat_aduvel_min        =  -7.6481216038016E-03
(PID.TID 0000.0001) %MON ad_dynstat_aduvel_mean       =   1.2351074750023E-04
(PID.TID 0000.0001) %MON ad_dynstat_aduvel_sd         =   6.9767869311579E-04
(PID.TID 0000.0001) %MON ad_dynstat_aduvel_del2       =   3.7019767157580E-05
(PID.TID 0000.0001) %MON ad_dynstat_advvel_max        =   2.5562173793595E-02
(PID.TID 0000.0001) %MON ad_dynstat_advvel_min        =  -1.4901378965635E-02
(PID.TID 0000.0001) %MON ad_dynstat_advvel_mean       =  -1.5226110636860E-04
(PID.TID 0000.0001) %MON ad_dynstat_advvel_sd         =   1.2462826651590E-03
(PID.TID 0000.0001) %MON ad_dynstat_advvel_del2       =   1.0311124559207E-04
(PID.TID 0000.0001) %MON ad_dynstat_adwvel_max        =   1.4023727411982E+00
(PID.TID 0000.0001) %MON ad_dynstat_adwvel_min        =  -7.9167817357511E-01
(PID.TID 0000.0001) %MON ad_dynstat_adwvel_mean       =   1.7792818025508E-04
(PID.TID 0000.0001) %MON ad_dynstat_adwvel_sd         =   2.1523752634063E-02
(PID.TID 0000.0001) %MON ad_dynstat_adwvel_del2       =   1.1964944342212E-03
(PID.TID 0000.0001) %MON ad_dynstat_adtheta_max       =   3.4453905828193E-03
(PID.TID 0000.0001) %MON ad_dynstat_adtheta_min       =  -3.4194471015919E-03
(PID.TID 0000.0001) %MON ad_dynstat_adtheta_mean      =   6.5017455208366E-07
(PID.TID 0000.0001) %MON ad_dynstat_adtheta_sd        =   1.4866728922101E-04
(PID.TID 0000.0001) %MON ad_dynstat_adtheta_del2      =   9.2322713191726E-06
(PID.TID 0000.0001) %MON ad_dynstat_adsalt_max        =   1.6638196274980E-02
(PID.TID 0000.0001) %MON ad_dynstat_adsalt_min        =  -1.5569903104447E-02
(PID.TID 0000.0001) %MON ad_dynstat_adsalt_mean       =  -2.7988748946719E-06
(PID.TID 0000.0001) %MON ad_dynstat_adsalt_sd         =   6.9699674983901E-04
(PID.TID 0000.0001) %MON ad_dynstat_adsalt_del2       =   4.3395682840078E-05
(PID.TID 0000.0001) %MON ad_dynstat_adsst_max         =   2.5184727239606E-04
(PID.TID 0000.0001) %MON ad_dynstat_adsst_min         =  -1.0916076909137E-04
(PID.TID 0000.0001) %MON ad_dynstat_adsst_mean        =   4.4818907887864E-08
(PID.TID 0000.0001) %MON ad_dynstat_adsst_sd          =   7.6238326253263E-06
(PID.TID 0000.0001) %MON ad_dynstat_adsst_del2        =   6.3826054255770E-07
(PID.TID 0000.0001) %MON ad_dynstat_adsss_max         =   3.3820041828242E-04
(PID.TID 0000.0001) %MON ad_dynstat_adsss_min         =  -7.2289925154731E-04
(PID.TID 0000.0001) %MON ad_dynstat_adsss_mean        =  -5.2592329222120E-07
(PID.TID 0000.0001) %MON ad_dynstat_adsss_sd          =   2.4575511518332E-05
(PID.TID 0000.0001) %MON ad_dynstat_adsss_del2        =   2.3630121838599E-06
(PID.TID 0000.0001) %MON ad_extforcing_adqnet_max     =   0.0000000000000E+00
(PID.TID 0000.0001) %MON ad_extforcing_adqnet_min     =   0.0000000000000E+00
(PID.TID 0000.0001) %MON ad_extforcing_adqnet_mean    =   0.0000000000000E+00
(PID.TID 0000.0001) %MON ad_extforcing_adqnet_sd      =   0.0000000000000E+00
(PID.TID 0000.0001) %MON ad_extforcing_adqnet_del2    =   0.0000000000000E+00
(PID.TID 0000.0001) %MON ad_extforcing_adempmr_max    =   1.6632694442319E+03
(PID.TID 0000.0001) %MON ad_extforcing_adempmr_min    =  -1.8111535247790E+03
(PID.TID 0000.0001) %MON ad_extforcing_adempmr_mean   =   2.7894594337210E-01
(PID.TID 0000.0001) %MON ad_extforcing_adempmr_sd     =   9.3048422212194E+01
(PID.TID 0000.0001) %MON ad_extforcing_adempmr_del2   =   8.2446998440142E+00
(PID.TID 0000.0001) %MON ad_extforcing_adfu_max       =   0.0000000000000E+00
(PID.TID 0000.0001) %MON ad_extforcing_adfu_min       =   0.0000000000000E+00
(PID.TID 0000.0001) %MON ad_extforcing_adfu_mean      =   0.0000000000000E+00
(PID.TID 0000.0001) %MON ad_extforcing_adfu_sd        =   0.0000000000000E+00
(PID.TID 0000.0001) %MON ad_extforcing_adfu_del2      =   0.0000000000000E+00
(PID.TID 0000.0001) %MON ad_extforcing_adfv_max       =   0.0000000000000E+00
(PID.TID 0000.0001) %MON ad_extforcing_adfv_min       =   0.0000000000000E+00
(PID.TID 0000.0001) %MON ad_extforcing_adfv_mean      =   0.0000000000000E+00
(PID.TID 0000.0001) %MON ad_extforcing_adfv_sd        =   0.0000000000000E+00
(PID.TID 0000.0001) %MON ad_extforcing_adfv_del2      =   0.0000000000000E+00
(PID.TID 0000.0001) %MON ad_advcfl_aduvel_max         =   1.2493131087338E-03
(PID.TID 0000.0001) %MON ad_advcfl_advvel_max         =   2.4831602000583E-03
(PID.TID 0000.0001) %MON ad_advcfl_adwvel_max         =   2.8610231556273E+02
(PID.TID 0000.0001) %MON ad_advcfl_adW_hf_max         =   4.0390915138267E+02
(PID.TID 0000.0001) // =======================================================
(PID.TID 0000.0001) // End MONITOR dynamic field statistics
(PID.TID 0000.0001) // =======================================================
 cg2d: Sum(rhs),rhsMax =   6.04239575041632E-12  2.89043775603881E-08
time,SST,SSS,fu,fv,Q,E-P,i0,i1,a,b =   7.7760E+05  5.9632E-01  3.4574E+01 -3.7580E-02 -5.9855E-02  2.6550E+02  0.0000E+00    12     1  8.0000E-01  2.0000E-01
time,fu0,fu1,fu =   7.7760E+05 -4.5368E-02 -3.5633E-02 -3.7580E-02  8.000000000000000E-01  2.000000000000000E-01
 cg2d: Sum(rhs),rhsMax =  -7.33786295614713E-13  9.70409645617043E+00
time,SST,SSS,fu,fv,Q,E-P,i0,i1,a,b =   8.2080E+05  6.2649E-01  3.4586E+01 -3.7418E-02 -5.9638E-02  2.6552E+02  0.0000E+00    12     1  8.1667E-01  1.8333E-01
time,fu0,fu1,fu =   8.2080E+05 -4.5368E-02 -3.5633E-02 -3.7418E-02  8.166666666666667E-01  1.833333333333333E-01
 cg2d: Sum(rhs),rhsMax =  -1.14965502395759E-12  9.47667283578001E+00
time,SST,SSS,fu,fv,Q,E-P,i0,i1,a,b =   8.6400E+05  6.5667E-01  3.4598E+01 -3.7255E-02 -5.9422E-02  2.6555E+02  0.0000E+00    12     1  8.3333E-01  1.6667E-01
time,fu0,fu1,fu =   8.6400E+05 -4.5368E-02 -3.5633E-02 -3.7255E-02  8.333333333333334E-01  1.666666666666666E-01
 cg2d: Sum(rhs),rhsMax =  -9.04056343675741E-13  1.03748401635909E+01
(PID.TID 0000.0001) // =======================================================
(PID.TID 0000.0001) // Begin MONITOR dynamic field statistics
(PID.TID 0000.0001) // =======================================================
(PID.TID 0000.0001) %MON ad_time_tsnumber             =                    21
(PID.TID 0000.0001) %MON ad_time_secondsf             =   9.0720000000000E+05
(PID.TID 0000.0001) %MON ad_dynstat_adeta_max         =   1.3183303845586E-03
(PID.TID 0000.0001) %MON ad_dynstat_adeta_min         =  -3.4551646912658E-03
(PID.TID 0000.0001) %MON ad_dynstat_adeta_mean        =   1.6595828415137E-06
(PID.TID 0000.0001) %MON ad_dynstat_adeta_sd          =   2.2830695621625E-04
(PID.TID 0000.0001) %MON ad_dynstat_adeta_del2        =   2.4793743344472E-05
(PID.TID 0000.0001) %MON ad_dynstat_aduvel_max        =   1.1710037587715E-02
(PID.TID 0000.0001) %MON ad_dynstat_aduvel_min        =  -7.6462775685255E-03
(PID.TID 0000.0001) %MON ad_dynstat_aduvel_mean       =   1.2682680046131E-04
(PID.TID 0000.0001) %MON ad_dynstat_aduvel_sd         =   6.9667848651657E-04
(PID.TID 0000.0001) %MON ad_dynstat_aduvel_del2       =   3.7192334889475E-05
(PID.TID 0000.0001) %MON ad_dynstat_advvel_max        =   2.7237498685143E-02
(PID.TID 0000.0001) %MON ad_dynstat_advvel_min        =  -1.6147665981625E-02
(PID.TID 0000.0001) %MON ad_dynstat_advvel_mean       =  -1.5449302872255E-04
(PID.TID 0000.0001) %MON ad_dynstat_advvel_sd         =   1.2970068265754E-03
(PID.TID 0000.0001) %MON ad_dynstat_advvel_del2       =   1.0674191737953E-04
(PID.TID 0000.0001) %MON ad_dynstat_adwvel_max        =   1.4091094819935E+00
(PID.TID 0000.0001) %MON ad_dynstat_adwvel_min        =  -7.9774487647112E-01
(PID.TID 0000.0001) %MON ad_dynstat_adwvel_mean       =   1.7461730880925E-04
(PID.TID 0000.0001) %MON ad_dynstat_adwvel_sd         =   2.1404000806671E-02
(PID.TID 0000.0001) %MON ad_dynstat_adwvel_del2       =   1.1492730612761E-03
(PID.TID 0000.0001) %MON ad_dynstat_adtheta_max       =   3.4715419313542E-03
(PID.TID 0000.0001) %MON ad_dynstat_adtheta_min       =  -3.4335156814470E-03
(PID.TID 0000.0001) %MON ad_dynstat_adtheta_mean      =   6.5690935180312E-07
(PID.TID 0000.0001) %MON ad_dynstat_adtheta_sd        =   1.4902254546162E-04
(PID.TID 0000.0001) %MON ad_dynstat_adtheta_del2      =   9.0358061440438E-06
(PID.TID 0000.0001) %MON ad_dynstat_adsalt_max        =   1.6648881625638E-02
(PID.TID 0000.0001) %MON ad_dynstat_adsalt_min        =  -1.5685783338598E-02
(PID.TID 0000.0001) %MON ad_dynstat_adsalt_mean       =  -2.8920242620235E-06
(PID.TID 0000.0001) %MON ad_dynstat_adsalt_sd         =   6.9916368170240E-04
(PID.TID 0000.0001) %MON ad_dynstat_adsalt_del2       =   4.2602017718101E-05
(PID.TID 0000.0001) %MON ad_dynstat_adsst_max         =   2.5553769505565E-04
(PID.TID 0000.0001) %MON ad_dynstat_adsst_min         =  -1.0771529068795E-04
(PID.TID 0000.0001) %MON ad_dynstat_adsst_mean        =   2.3335443097219E-08
(PID.TID 0000.0001) %MON ad_dynstat_adsst_sd          =   7.6906368775238E-06
(PID.TID 0000.0001) %MON ad_dynstat_adsst_del2        =   6.3590402287866E-07
(PID.TID 0000.0001) %MON ad_dynstat_adsss_max         =   3.3476931023555E-04
(PID.TID 0000.0001) %MON ad_dynstat_adsss_min         =  -7.3562124579040E-04
(PID.TID 0000.0001) %MON ad_dynstat_adsss_mean        =  -4.8018703015536E-07
(PID.TID 0000.0001) %MON ad_dynstat_adsss_sd          =   2.4748968109557E-05
(PID.TID 0000.0001) %MON ad_dynstat_adsss_del2        =   2.3863653097295E-06
(PID.TID 0000.0001) %MON ad_extforcing_adqnet_max     =   0.0000000000000E+00
(PID.TID 0000.0001) %MON ad_extforcing_adqnet_min     =   0.0000000000000E+00
(PID.TID 0000.0001) %MON ad_extforcing_adqnet_mean    =   0.0000000000000E+00
(PID.TID 0000.0001) %MON ad_extforcing_adqnet_sd      =   0.0000000000000E+00
(PID.TID 0000.0001) %MON ad_extforcing_adqnet_del2    =   0.0000000000000E+00
(PID.TID 0000.0001) %MON ad_extforcing_adempmr_max    =   1.6782458732063E+03
(PID.TID 0000.0001) %MON ad_extforcing_adempmr_min    =  -1.8251628615264E+03
(PID.TID 0000.0001) %MON ad_extforcing_adempmr_mean   =   2.6063441426538E-01
(PID.TID 0000.0001) %MON ad_extforcing_adempmr_sd     =   9.3601819549474E+01
(PID.TID 0000.0001) %MON ad_extforcing_adempmr_del2   =   8.2952850625741E+00
(PID.TID 0000.0001) %MON ad_extforcing_adfu_max       =   0.0000000000000E+00
(PID.TID 0000.0001) %MON ad_extforcing_adfu_min       =   0.0000000000000E+00
(PID.TID 0000.0001) %MON ad_extforcing_adfu_mean      =   0.0000000000000E+00
(PID.TID 0000.0001) %MON ad_extforcing_adfu_sd        =   0.0000000000000E+00
(PID.TID 0000.0001) %MON ad_extforcing_adfu_del2      =   0.0000000000000E+00
(PID.TID 0000.0001) %MON ad_extforcing_adfv_max       =   0.0000000000000E+00
(PID.TID 0000.0001) %MON ad_extforcing_adfv_min       =   0.0000000000000E+00
(PID.TID 0000.0001) %MON ad_extforcing_adfv_mean      =   0.0000000000000E+00
(PID.TID 0000.0001) %MON ad_extforcing_adfv_sd        =   0.0000000000000E+00
(PID.TID 0000.0001) %MON ad_extforcing_adfv_del2      =   0.0000000000000E+00
(PID.TID 0000.0001) %MON ad_advcfl_aduvel_max         =   1.2656250373692E-03
(PID.TID 0000.0001) %MON ad_advcfl_advvel_max         =   2.6459045787817E-03
(PID.TID 0000.0001) %MON ad_advcfl_adwvel_max         =   2.8779846349135E+02
(PID.TID 0000.0001) %MON ad_advcfl_adW_hf_max         =   4.0630371316426E+02
(PID.TID 0000.0001) // =======================================================
(PID.TID 0000.0001) // End MONITOR dynamic field statistics
(PID.TID 0000.0001) // =======================================================
 cg2d: Sum(rhs),rhsMax =   6.06059646912627E-12  2.86559976242042E-08
 myIter=  20
 ph-mnc in addummy param  T
 ph-mnc in addummy myiter  20
(PID.TID 0000.0001) // =======================================================
(PID.TID 0000.0001) // Begin MONITOR dynamic field statistics
(PID.TID 0000.0001) // =======================================================
(PID.TID 0000.0001) %MON ad_time_tsnumber             =                    20
(PID.TID 0000.0001) %MON ad_time_secondsf             =   8.6400000000000E+05
(PID.TID 0000.0001) %MON ad_dynstat_adeta_max         =   1.4215502927086E-03
(PID.TID 0000.0001) %MON ad_dynstat_adeta_min         =  -3.2279886311662E-03
(PID.TID 0000.0001) %MON ad_dynstat_adeta_mean        =   2.2524437433253E-06
(PID.TID 0000.0001) %MON ad_dynstat_adeta_sd          =   2.2598297779614E-04
(PID.TID 0000.0001) %MON ad_dynstat_adeta_del2        =   2.4247505118296E-05
(PID.TID 0000.0001) %MON ad_dynstat_aduvel_max        =   1.1811539226066E-02
(PID.TID 0000.0001) %MON ad_dynstat_aduvel_min        =  -7.6183504366482E-03
(PID.TID 0000.0001) %MON ad_dynstat_aduvel_mean       =   1.3197527515164E-04
(PID.TID 0000.0001) %MON ad_dynstat_aduvel_sd         =   6.9479781264656E-04
(PID.TID 0000.0001) %MON ad_dynstat_aduvel_del2       =   3.6947558011781E-05
(PID.TID 0000.0001) %MON ad_dynstat_advvel_max        =   2.8685492828042E-02
(PID.TID 0000.0001) %MON ad_dynstat_advvel_min        =  -1.7281287928766E-02
(PID.TID 0000.0001) %MON ad_dynstat_advvel_mean       =  -1.5575083689768E-04
(PID.TID 0000.0001) %MON ad_dynstat_advvel_sd         =   1.3426607868135E-03
(PID.TID 0000.0001) %MON ad_dynstat_advvel_del2       =   1.0959566880378E-04
(PID.TID 0000.0001) %MON ad_dynstat_adwvel_max        =   1.4177694837396E+00
(PID.TID 0000.0001) %MON ad_dynstat_adwvel_min        =  -8.0477542824552E-01
(PID.TID 0000.0001) %MON ad_dynstat_adwvel_mean       =   1.7147278673082E-04
(PID.TID 0000.0001) %MON ad_dynstat_adwvel_sd         =   2.1374799068161E-02
(PID.TID 0000.0001) %MON ad_dynstat_adwvel_del2       =   1.1073844653062E-03
(PID.TID 0000.0001) %MON ad_dynstat_adtheta_max       =   3.5015261857468E-03
(PID.TID 0000.0001) %MON ad_dynstat_adtheta_min       =  -3.4518530036556E-03
(PID.TID 0000.0001) %MON ad_dynstat_adtheta_mean      =   6.7753479279460E-07
(PID.TID 0000.0001) %MON ad_dynstat_adtheta_sd        =   1.4965115143280E-04
(PID.TID 0000.0001) %MON ad_dynstat_adtheta_del2      =   8.8604756607657E-06
(PID.TID 0000.0001) %MON ad_dynstat_adsalt_max        =   1.6648109163441E-02
(PID.TID 0000.0001) %MON ad_dynstat_adsalt_min        =  -1.5812122440147E-02
(PID.TID 0000.0001) %MON ad_dynstat_adsalt_mean       =  -3.0808899209653E-06
(PID.TID 0000.0001) %MON ad_dynstat_adsalt_sd         =   7.0250021612146E-04
(PID.TID 0000.0001) %MON ad_dynstat_adsalt_del2       =   4.1838823544711E-05
(PID.TID 0000.0001) %MON ad_dynstat_adsst_max         =   2.4977355242796E-04
(PID.TID 0000.0001) %MON ad_dynstat_adsst_min         =  -1.0671338112250E-04
(PID.TID 0000.0001) %MON ad_dynstat_adsst_mean        =   7.6763982981798E-09
(PID.TID 0000.0001) %MON ad_dynstat_adsst_sd          =   7.6154306720097E-06
(PID.TID 0000.0001) %MON ad_dynstat_adsst_del2        =   6.1650759363901E-07
(PID.TID 0000.0001) %MON ad_dynstat_adsss_max         =   3.3260343608878E-04
(PID.TID 0000.0001) %MON ad_dynstat_adsss_min         =  -7.2237073604414E-04
(PID.TID 0000.0001) %MON ad_dynstat_adsss_mean        =  -4.6873949332224E-07
(PID.TID 0000.0001) %MON ad_dynstat_adsss_sd          =   2.4587695657533E-05
(PID.TID 0000.0001) %MON ad_dynstat_adsss_del2        =   2.3116423993259E-06
(PID.TID 0000.0001) %MON ad_extforcing_adqnet_max     =   0.0000000000000E+00
(PID.TID 0000.0001) %MON ad_extforcing_adqnet_min     =   0.0000000000000E+00
(PID.TID 0000.0001) %MON ad_extforcing_adqnet_mean    =   0.0000000000000E+00
(PID.TID 0000.0001) %MON ad_extforcing_adqnet_sd      =   0.0000000000000E+00
(PID.TID 0000.0001) %MON ad_extforcing_adqnet_del2    =   0.0000000000000E+00
(PID.TID 0000.0001) %MON ad_extforcing_adempmr_max    =   1.6931028477782E+03
(PID.TID 0000.0001) %MON ad_extforcing_adempmr_min    =  -1.8394040813026E+03
(PID.TID 0000.0001) %MON ad_extforcing_adempmr_mean   =   2.4270099092452E-01
(PID.TID 0000.0001) %MON ad_extforcing_adempmr_sd     =   9.4181102687282E+01
(PID.TID 0000.0001) %MON ad_extforcing_adempmr_del2   =   8.3486330641984E+00
(PID.TID 0000.0001) %MON ad_extforcing_adfu_max       =   0.0000000000000E+00
(PID.TID 0000.0001) %MON ad_extforcing_adfu_min       =   0.0000000000000E+00
(PID.TID 0000.0001) %MON ad_extforcing_adfu_mean      =   0.0000000000000E+00
(PID.TID 0000.0001) %MON ad_extforcing_adfu_sd        =   0.0000000000000E+00
(PID.TID 0000.0001) %MON ad_extforcing_adfu_del2      =   0.0000000000000E+00
(PID.TID 0000.0001) %MON ad_extforcing_adfv_max       =   0.0000000000000E+00
(PID.TID 0000.0001) %MON ad_extforcing_adfv_min       =   0.0000000000000E+00
(PID.TID 0000.0001) %MON ad_extforcing_adfv_mean      =   0.0000000000000E+00
(PID.TID 0000.0001) %MON ad_extforcing_adfv_sd        =   0.0000000000000E+00
(PID.TID 0000.0001) %MON ad_extforcing_adfv_del2      =   0.0000000000000E+00
(PID.TID 0000.0001) %MON ad_advcfl_aduvel_max         =   1.2765953706299E-03
(PID.TID 0000.0001) %MON ad_advcfl_advvel_max         =   2.7865655982474E-03
(PID.TID 0000.0001) %MON ad_advcfl_adwvel_max         =   2.8996264257040E+02
(PID.TID 0000.0001) %MON ad_advcfl_adW_hf_max         =   4.0935902480527E+02
(PID.TID 0000.0001) // =======================================================
(PID.TID 0000.0001) // End MONITOR dynamic field statistics
(PID.TID 0000.0001) // =======================================================
 cg2d: Sum(rhs),rhsMax =   6.06936029212690E-12  2.84372398079038E-08
(PID.TID 0000.0001) // =======================================================
(PID.TID 0000.0001) // Begin MONITOR dynamic field statistics
(PID.TID 0000.0001) // =======================================================
(PID.TID 0000.0001) %MON ad_time_tsnumber             =                    19
(PID.TID 0000.0001) %MON ad_time_secondsf             =   8.2080000000000E+05
(PID.TID 0000.0001) %MON ad_dynstat_adeta_max         =   1.5292062768524E-03
(PID.TID 0000.0001) %MON ad_dynstat_adeta_min         =  -2.9938865110024E-03
(PID.TID 0000.0001) %MON ad_dynstat_adeta_mean        =   2.6441202765551E-06
(PID.TID 0000.0001) %MON ad_dynstat_adeta_sd          =   2.2441753512356E-04
(PID.TID 0000.0001) %MON ad_dynstat_adeta_del2        =   2.3827223059709E-05
(PID.TID 0000.0001) %MON ad_dynstat_aduvel_max        =   1.1863526917846E-02
(PID.TID 0000.0001) %MON ad_dynstat_aduvel_min        =  -7.5636928537155E-03
(PID.TID 0000.0001) %MON ad_dynstat_aduvel_mean       =   1.3257899711966E-04
(PID.TID 0000.0001) %MON ad_dynstat_aduvel_sd         =   6.9348264999582E-04
(PID.TID 0000.0001) %MON ad_dynstat_aduvel_del2       =   3.7783734966805E-05
(PID.TID 0000.0001) %MON ad_dynstat_advvel_max        =   2.9897123992914E-02
(PID.TID 0000.0001) %MON ad_dynstat_advvel_min        =  -1.8295959545918E-02
(PID.TID 0000.0001) %MON ad_dynstat_advvel_mean       =  -1.5590416813128E-04
(PID.TID 0000.0001) %MON ad_dynstat_advvel_sd         =   1.3820009603137E-03
(PID.TID 0000.0001) %MON ad_dynstat_advvel_del2       =   1.1166108215414E-04
(PID.TID 0000.0001) %MON ad_dynstat_adwvel_max        =   1.4280964731880E+00
(PID.TID 0000.0001) %MON ad_dynstat_adwvel_min        =  -8.1267738050096E-01
(PID.TID 0000.0001) %MON ad_dynstat_adwvel_mean       =   1.6850242389051E-04
(PID.TID 0000.0001) %MON ad_dynstat_adwvel_sd         =   2.1446559493510E-02
(PID.TID 0000.0001) %MON ad_dynstat_adwvel_del2       =   1.0766827621008E-03
(PID.TID 0000.0001) %MON ad_dynstat_adtheta_max       =   3.5350297704795E-03
(PID.TID 0000.0001) %MON ad_dynstat_adtheta_min       =  -3.4740700632530E-03
(PID.TID 0000.0001) %MON ad_dynstat_adtheta_mean      =   6.7215564997278E-07
(PID.TID 0000.0001) %MON ad_dynstat_adtheta_sd        =   1.5055237572244E-04
(PID.TID 0000.0001) %MON ad_dynstat_adtheta_del2      =   8.7675756481735E-06
(PID.TID 0000.0001) %MON ad_dynstat_adsalt_max        =   1.6636500084678E-02
(PID.TID 0000.0001) %MON ad_dynstat_adsalt_min        =  -1.5947557827979E-02
(PID.TID 0000.0001) %MON ad_dynstat_adsalt_mean       =  -3.0958590339522E-06
(PID.TID 0000.0001) %MON ad_dynstat_adsalt_sd         =   7.0699235114400E-04
(PID.TID 0000.0001) %MON ad_dynstat_adsalt_del2       =   4.1545860469245E-05
(PID.TID 0000.0001) %MON ad_dynstat_adsst_max         =   2.4045608353520E-04
(PID.TID 0000.0001) %MON ad_dynstat_adsst_min         =  -1.0622540717924E-04
(PID.TID 0000.0001) %MON ad_dynstat_adsst_mean        =  -2.6643534008099E-08
(PID.TID 0000.0001) %MON ad_dynstat_adsst_sd          =   7.5001050118713E-06
(PID.TID 0000.0001) %MON ad_dynstat_adsst_del2        =   6.2979422877716E-07
(PID.TID 0000.0001) %MON ad_dynstat_adsss_max         =   3.3188656736768E-04
(PID.TID 0000.0001) %MON ad_dynstat_adsss_min         =  -6.9932416469452E-04
(PID.TID 0000.0001) %MON ad_dynstat_adsss_mean        =  -3.6555734857867E-07
(PID.TID 0000.0001) %MON ad_dynstat_adsss_sd          =   2.4345517920090E-05
(PID.TID 0000.0001) %MON ad_dynstat_adsss_del2        =   2.3942356783670E-06
(PID.TID 0000.0001) %MON ad_extforcing_adqnet_max     =   0.0000000000000E+00
(PID.TID 0000.0001) %MON ad_extforcing_adqnet_min     =   0.0000000000000E+00
(PID.TID 0000.0001) %MON ad_extforcing_adqnet_mean    =   0.0000000000000E+00
(PID.TID 0000.0001) %MON ad_extforcing_adqnet_sd      =   0.0000000000000E+00
(PID.TID 0000.0001) %MON ad_extforcing_adqnet_del2    =   0.0000000000000E+00
(PID.TID 0000.0001) %MON ad_extforcing_adempmr_max    =   1.7078877518063E+03
(PID.TID 0000.0001) %MON ad_extforcing_adempmr_min    =  -1.8538120838614E+03
(PID.TID 0000.0001) %MON ad_extforcing_adempmr_mean   =   2.2576589138657E-01
(PID.TID 0000.0001) %MON ad_extforcing_adempmr_sd     =   9.4784493005092E+01
(PID.TID 0000.0001) %MON ad_extforcing_adempmr_del2   =   8.4042652660343E+00
(PID.TID 0000.0001) %MON ad_extforcing_adfu_max       =   0.0000000000000E+00
(PID.TID 0000.0001) %MON ad_extforcing_adfu_min       =   0.0000000000000E+00
(PID.TID 0000.0001) %MON ad_extforcing_adfu_mean      =   0.0000000000000E+00
(PID.TID 0000.0001) %MON ad_extforcing_adfu_sd        =   0.0000000000000E+00
(PID.TID 0000.0001) %MON ad_extforcing_adfu_del2      =   0.0000000000000E+00
(PID.TID 0000.0001) %MON ad_extforcing_adfv_max       =   0.0000000000000E+00
(PID.TID 0000.0001) %MON ad_extforcing_adfv_min       =   0.0000000000000E+00
(PID.TID 0000.0001) %MON ad_extforcing_adfv_mean      =   0.0000000000000E+00
(PID.TID 0000.0001) %MON ad_extforcing_adfv_sd        =   0.0000000000000E+00
(PID.TID 0000.0001) %MON ad_extforcing_adfv_del2      =   0.0000000000000E+00
(PID.TID 0000.0001) %MON ad_advcfl_aduvel_max         =   1.2822142188922E-03
(PID.TID 0000.0001) %MON ad_advcfl_advvel_max         =   2.9042658498009E-03
(PID.TID 0000.0001) %MON ad_advcfl_adwvel_max         =   2.9256797591771E+02
(PID.TID 0000.0001) %MON ad_advcfl_adW_hf_max         =   4.1303714247206E+02
(PID.TID 0000.0001) // =======================================================
(PID.TID 0000.0001) // End MONITOR dynamic field statistics
(PID.TID 0000.0001) // =======================================================
 cg2d: Sum(rhs),rhsMax =   6.13208789301822E-12  2.82507072254514E-08
time,SST,SSS,fu,fv,Q,E-P,i0,i1,a,b =   6.4800E+05  5.0579E-01  3.4539E+01 -3.8067E-02 -6.0505E-02  2.6543E+02  0.0000E+00    12     1  7.5000E-01  2.5000E-01
time,fu0,fu1,fu =   6.4800E+05 -4.5368E-02 -3.5633E-02 -3.8067E-02  7.500000000000000E-01  2.500000000000000E-01
 cg2d: Sum(rhs),rhsMax =  -5.59292195889682E-13  1.00472791850534E+01
time,SST,SSS,fu,fv,Q,E-P,i0,i1,a,b =   6.9120E+05  5.3596E-01  3.4551E+01 -3.7904E-02 -6.0288E-02  2.6546E+02  0.0000E+00    12     1  7.6667E-01  2.3333E-01
time,fu0,fu1,fu =   6.9120E+05 -4.5368E-02 -3.5633E-02 -3.7904E-02  7.666666666666667E-01  2.333333333333333E-01
 cg2d: Sum(rhs),rhsMax =  -1.00747188369610E-12  1.01282964952821E+01
time,SST,SSS,fu,fv,Q,E-P,i0,i1,a,b =   7.3440E+05  5.6614E-01  3.4563E+01 -3.7742E-02 -6.0072E-02  2.6548E+02  0.0000E+00    12     1  7.8333E-01  2.1667E-01
time,fu0,fu1,fu =   7.3440E+05 -4.5368E-02 -3.5633E-02 -3.7742E-02  7.833333333333333E-01  2.166666666666667E-01
 cg2d: Sum(rhs),rhsMax =  -9.72015870570608E-13  1.00066236471320E+01
(PID.TID 0000.0001) // =======================================================
(PID.TID 0000.0001) // Begin MONITOR dynamic field statistics
(PID.TID 0000.0001) // =======================================================
(PID.TID 0000.0001) %MON ad_time_tsnumber             =                    18
(PID.TID 0000.0001) %MON ad_time_secondsf             =   7.7760000000000E+05
(PID.TID 0000.0001) %MON ad_dynstat_adeta_max         =   1.6403197718592E-03
(PID.TID 0000.0001) %MON ad_dynstat_adeta_min         =  -2.9697392271964E-03
(PID.TID 0000.0001) %MON ad_dynstat_adeta_mean        =   3.1444440226853E-06
(PID.TID 0000.0001) %MON ad_dynstat_adeta_sd          =   2.2372581699726E-04
(PID.TID 0000.0001) %MON ad_dynstat_adeta_del2        =   2.3666771617160E-05
(PID.TID 0000.0001) %MON ad_dynstat_aduvel_max        =   1.1865873810576E-02
(PID.TID 0000.0001) %MON ad_dynstat_aduvel_min        =  -7.4820970425321E-03
(PID.TID 0000.0001) %MON ad_dynstat_aduvel_mean       =   1.3487165036943E-04
(PID.TID 0000.0001) %MON ad_dynstat_aduvel_sd         =   6.9116329666844E-04
(PID.TID 0000.0001) %MON ad_dynstat_aduvel_del2       =   3.8051022971845E-05
(PID.TID 0000.0001) %MON ad_dynstat_advvel_max        =   3.0865392314368E-02
(PID.TID 0000.0001) %MON ad_dynstat_advvel_min        =  -1.9186403900781E-02
(PID.TID 0000.0001) %MON ad_dynstat_advvel_mean       =  -1.5501254623231E-04
(PID.TID 0000.0001) %MON ad_dynstat_advvel_sd         =   1.4141866407077E-03
(PID.TID 0000.0001) %MON ad_dynstat_advvel_del2       =   1.1294567167237E-04
(PID.TID 0000.0001) %MON ad_dynstat_adwvel_max        =   1.4398821035244E+00
(PID.TID 0000.0001) %MON ad_dynstat_adwvel_min        =  -8.2141696119623E-01
(PID.TID 0000.0001) %MON ad_dynstat_adwvel_mean       =   1.6572259345456E-04
(PID.TID 0000.0001) %MON ad_dynstat_adwvel_sd         =   2.1625267996139E-02
(PID.TID 0000.0001) %MON ad_dynstat_adwvel_del2       =   1.0715575562079E-03
(PID.TID 0000.0001) %MON ad_dynstat_adtheta_max       =   3.5716764481118E-03
(PID.TID 0000.0001) %MON ad_dynstat_adtheta_min       =  -3.4998406760883E-03
(PID.TID 0000.0001) %MON ad_dynstat_adtheta_mean      =   6.8049272134027E-07
(PID.TID 0000.0001) %MON ad_dynstat_adtheta_sd        =   1.5173658000262E-04
(PID.TID 0000.0001) %MON ad_dynstat_adtheta_del2      =   8.7953933243742E-06
(PID.TID 0000.0001) %MON ad_dynstat_adsalt_max        =   1.6614814320580E-02
(PID.TID 0000.0001) %MON ad_dynstat_adsalt_min        =  -1.6090456696238E-02
(PID.TID 0000.0001) %MON ad_dynstat_adsalt_mean       =  -3.2050597260160E-06
(PID.TID 0000.0001) %MON ad_dynstat_adsalt_sd         =   7.1267448983189E-04
(PID.TID 0000.0001) %MON ad_dynstat_adsalt_del2       =   4.1625516427077E-05
(PID.TID 0000.0001) %MON ad_dynstat_adsst_max         =   2.3095371918571E-04
(PID.TID 0000.0001) %MON ad_dynstat_adsst_min         =  -1.0625538341549E-04
(PID.TID 0000.0001) %MON ad_dynstat_adsst_mean        =  -5.0019834605697E-08
(PID.TID 0000.0001) %MON ad_dynstat_adsst_sd          =   7.3897512134485E-06
(PID.TID 0000.0001) %MON ad_dynstat_adsst_del2        =   6.3262572904548E-07
(PID.TID 0000.0001) %MON ad_dynstat_adsss_max         =   3.3260938295050E-04
(PID.TID 0000.0001) %MON ad_dynstat_adsss_min         =  -6.7574111606397E-04
(PID.TID 0000.0001) %MON ad_dynstat_adsss_mean        =  -3.1075294476989E-07
(PID.TID 0000.0001) %MON ad_dynstat_adsss_sd          =   2.4118801339448E-05
(PID.TID 0000.0001) %MON ad_dynstat_adsss_del2        =   2.4048322754081E-06
(PID.TID 0000.0001) %MON ad_extforcing_adqnet_max     =   0.0000000000000E+00
(PID.TID 0000.0001) %MON ad_extforcing_adqnet_min     =   0.0000000000000E+00
(PID.TID 0000.0001) %MON ad_extforcing_adqnet_mean    =   0.0000000000000E+00
(PID.TID 0000.0001) %MON ad_extforcing_adqnet_sd      =   0.0000000000000E+00
(PID.TID 0000.0001) %MON ad_extforcing_adqnet_del2    =   0.0000000000000E+00
(PID.TID 0000.0001) %MON ad_extforcing_adempmr_max    =   1.7226529049298E+03
(PID.TID 0000.0001) %MON ad_extforcing_adempmr_min    =  -1.8683429740721E+03
(PID.TID 0000.0001) %MON ad_extforcing_adempmr_mean   =   2.1015179916136E-01
(PID.TID 0000.0001) %MON ad_extforcing_adempmr_sd     =   9.5412543690049E+01
(PID.TID 0000.0001) %MON ad_extforcing_adempmr_del2   =   8.4621971309947E+00
(PID.TID 0000.0001) %MON ad_extforcing_adfu_max       =   0.0000000000000E+00
(PID.TID 0000.0001) %MON ad_extforcing_adfu_min       =   0.0000000000000E+00
(PID.TID 0000.0001) %MON ad_extforcing_adfu_mean      =   0.0000000000000E+00
(PID.TID 0000.0001) %MON ad_extforcing_adfu_sd        =   0.0000000000000E+00
(PID.TID 0000.0001) %MON ad_extforcing_adfu_del2      =   0.0000000000000E+00
(PID.TID 0000.0001) %MON ad_extforcing_adfv_max       =   0.0000000000000E+00
(PID.TID 0000.0001) %MON ad_extforcing_adfv_min       =   0.0000000000000E+00
(PID.TID 0000.0001) %MON ad_extforcing_adfv_mean      =   0.0000000000000E+00
(PID.TID 0000.0001) %MON ad_extforcing_adfv_sd        =   0.0000000000000E+00
(PID.TID 0000.0001) %MON ad_extforcing_adfv_del2      =   0.0000000000000E+00
(PID.TID 0000.0001) %MON ad_advcfl_aduvel_max         =   1.2824678718952E-03
(PID.TID 0000.0001) %MON ad_advcfl_advvel_max         =   2.9983253526517E-03
(PID.TID 0000.0001) %MON ad_advcfl_adwvel_max         =   2.9558485689331E+02
(PID.TID 0000.0001) %MON ad_advcfl_adW_hf_max         =   4.1729626855526E+02
(PID.TID 0000.0001) // =======================================================
(PID.TID 0000.0001) // End MONITOR dynamic field statistics
(PID.TID 0000.0001) // =======================================================
 cg2d: Sum(rhs),rhsMax =   6.28193330687310E-12  2.80980036153406E-08
(PID.TID 0000.0001) // =======================================================
(PID.TID 0000.0001) // Begin MONITOR dynamic field statistics
(PID.TID 0000.0001) // =======================================================
(PID.TID 0000.0001) %MON ad_time_tsnumber             =                    17
(PID.TID 0000.0001) %MON ad_time_secondsf             =   7.3440000000000E+05
(PID.TID 0000.0001) %MON ad_dynstat_adeta_max         =   1.7543499477182E-03
(PID.TID 0000.0001) %MON ad_dynstat_adeta_min         =  -2.9444399648981E-03
(PID.TID 0000.0001) %MON ad_dynstat_adeta_mean        =   3.6453927877605E-06
(PID.TID 0000.0001) %MON ad_dynstat_adeta_sd          =   2.2400041801818E-04
(PID.TID 0000.0001) %MON ad_dynstat_adeta_del2        =   2.3615795222624E-05
(PID.TID 0000.0001) %MON ad_dynstat_aduvel_max        =   1.1818665523740E-02
(PID.TID 0000.0001) %MON ad_dynstat_aduvel_min        =  -7.3740968915714E-03
(PID.TID 0000.0001) %MON ad_dynstat_aduvel_mean       =   1.3668329823303E-04
(PID.TID 0000.0001) %MON ad_dynstat_aduvel_sd         =   6.8832231255913E-04
(PID.TID 0000.0001) %MON ad_dynstat_aduvel_del2       =   3.8269837936441E-05
(PID.TID 0000.0001) %MON ad_dynstat_advvel_max        =   3.1585138232903E-02
(PID.TID 0000.0001) %MON ad_dynstat_advvel_min        =  -1.9948339025281E-02
(PID.TID 0000.0001) %MON ad_dynstat_advvel_mean       =  -1.5303684130125E-04
(PID.TID 0000.0001) %MON ad_dynstat_advvel_sd         =   1.4385906749017E-03
(PID.TID 0000.0001) %MON ad_dynstat_advvel_del2       =   1.1347797470241E-04
(PID.TID 0000.0001) %MON ad_dynstat_adwvel_max        =   1.4529876085207E+00
(PID.TID 0000.0001) %MON ad_dynstat_adwvel_min        =  -8.3091934198406E-01
(PID.TID 0000.0001) %MON ad_dynstat_adwvel_mean       =   1.6321666374922E-04
(PID.TID 0000.0001) %MON ad_dynstat_adwvel_sd         =   2.1911289546309E-02
(PID.TID 0000.0001) %MON ad_dynstat_adwvel_del2       =   1.1041888646554E-03
(PID.TID 0000.0001) %MON ad_dynstat_adtheta_max       =   3.6110343671902E-03
(PID.TID 0000.0001) %MON ad_dynstat_adtheta_min       =  -3.5289170344079E-03
(PID.TID 0000.0001) %MON ad_dynstat_adtheta_mean      =   6.8909668092593E-07
(PID.TID 0000.0001) %MON ad_dynstat_adtheta_sd        =   1.5318492985508E-04
(PID.TID 0000.0001) %MON ad_dynstat_adtheta_del2      =   8.9561139586702E-06
(PID.TID 0000.0001) %MON ad_dynstat_adsalt_max        =   1.6583950442737E-02
(PID.TID 0000.0001) %MON ad_dynstat_adsalt_min        =  -1.6238933073285E-02
(PID.TID 0000.0001) %MON ad_dynstat_adsalt_mean       =  -3.3178651489604E-06
(PID.TID 0000.0001) %MON ad_dynstat_adsalt_sd         =   7.1945514747023E-04
(PID.TID 0000.0001) %MON ad_dynstat_adsalt_del2       =   4.2235061113478E-05
(PID.TID 0000.0001) %MON ad_dynstat_adsst_max         =   2.2261494403393E-04
(PID.TID 0000.0001) %MON ad_dynstat_adsst_min         =  -1.0673250785198E-04
(PID.TID 0000.0001) %MON ad_dynstat_adsst_mean        =  -6.9965241521931E-08
(PID.TID 0000.0001) %MON ad_dynstat_adsst_sd          =   7.3391471552310E-06
(PID.TID 0000.0001) %MON ad_dynstat_adsst_del2        =   6.4399145141610E-07
(PID.TID 0000.0001) %MON ad_dynstat_adsss_max         =   3.3454959736799E-04
(PID.TID 0000.0001) %MON ad_dynstat_adsss_min         =  -6.5531817873485E-04
(PID.TID 0000.0001) %MON ad_dynstat_adsss_mean        =  -2.6466019884400E-07
(PID.TID 0000.0001) %MON ad_dynstat_adsss_sd          =   2.4075342093699E-05
(PID.TID 0000.0001) %MON ad_dynstat_adsss_del2        =   2.4249984648868E-06
(PID.TID 0000.0001) %MON ad_extforcing_adqnet_max     =   0.0000000000000E+00
(PID.TID 0000.0001) %MON ad_extforcing_adqnet_min     =   0.0000000000000E+00
(PID.TID 0000.0001) %MON ad_extforcing_adqnet_mean    =   0.0000000000000E+00
(PID.TID 0000.0001) %MON ad_extforcing_adqnet_sd      =   0.0000000000000E+00
(PID.TID 0000.0001) %MON ad_extforcing_adqnet_del2    =   0.0000000000000E+00
(PID.TID 0000.0001) %MON ad_extforcing_adempmr_max    =   1.7374484581585E+03
(PID.TID 0000.0001) %MON ad_extforcing_adempmr_min    =  -1.8829256982054E+03
(PID.TID 0000.0001) %MON ad_extforcing_adempmr_mean   =   1.9585407173929E-01
(PID.TID 0000.0001) %MON ad_extforcing_adempmr_sd     =   9.6063143377890E+01
(PID.TID 0000.0001) %MON ad_extforcing_adempmr_del2   =   8.5222442470681E+00
(PID.TID 0000.0001) %MON ad_extforcing_adfu_max       =   0.0000000000000E+00
(PID.TID 0000.0001) %MON ad_extforcing_adfu_min       =   0.0000000000000E+00
(PID.TID 0000.0001) %MON ad_extforcing_adfu_mean      =   0.0000000000000E+00
(PID.TID 0000.0001) %MON ad_extforcing_adfu_sd        =   0.0000000000000E+00
(PID.TID 0000.0001) %MON ad_extforcing_adfu_del2      =   0.0000000000000E+00
(PID.TID 0000.0001) %MON ad_extforcing_adfv_max       =   0.0000000000000E+00
(PID.TID 0000.0001) %MON ad_extforcing_adfv_min       =   0.0000000000000E+00
(PID.TID 0000.0001) %MON ad_extforcing_adfv_mean      =   0.0000000000000E+00
(PID.TID 0000.0001) %MON ad_extforcing_adfv_sd        =   0.0000000000000E+00
(PID.TID 0000.0001) %MON ad_extforcing_adfv_del2      =   0.0000000000000E+00
(PID.TID 0000.0001) %MON ad_advcfl_aduvel_max         =   1.2773655834232E-03
(PID.TID 0000.0001) %MON ad_advcfl_advvel_max         =   3.0682428969690E-03
(PID.TID 0000.0001) %MON ad_advcfl_adwvel_max         =   2.9897887597563E+02
(PID.TID 0000.0001) %MON ad_advcfl_adW_hf_max         =   4.2208782490677E+02
(PID.TID 0000.0001) // =======================================================
(PID.TID 0000.0001) // End MONITOR dynamic field statistics
(PID.TID 0000.0001) // =======================================================
 cg2d: Sum(rhs),rhsMax =   6.42849662391143E-12  2.79798897842243E-08
(PID.TID 0000.0001) // =======================================================
(PID.TID 0000.0001) // Begin MONITOR dynamic field statistics
(PID.TID 0000.0001) // =======================================================
(PID.TID 0000.0001) %MON ad_time_tsnumber             =                    16
(PID.TID 0000.0001) %MON ad_time_secondsf             =   6.9120000000000E+05
(PID.TID 0000.0001) %MON ad_dynstat_adeta_max         =   1.8710337356714E-03
(PID.TID 0000.0001) %MON ad_dynstat_adeta_min         =  -2.9141877963895E-03
(PID.TID 0000.0001) %MON ad_dynstat_adeta_mean        =   4.1434184558367E-06
(PID.TID 0000.0001) %MON ad_dynstat_adeta_sd          =   2.2528653902460E-04
(PID.TID 0000.0001) %MON ad_dynstat_adeta_del2        =   2.3970764898737E-05
(PID.TID 0000.0001) %MON ad_dynstat_aduvel_max        =   1.1722424518175E-02
(PID.TID 0000.0001) %MON ad_dynstat_aduvel_min        =  -7.2408555854926E-03
(PID.TID 0000.0001) %MON ad_dynstat_aduvel_mean       =   1.3794901470536E-04
(PID.TID 0000.0001) %MON ad_dynstat_aduvel_sd         =   6.8497300028420E-04
(PID.TID 0000.0001) %MON ad_dynstat_aduvel_del2       =   3.8478195586908E-05
(PID.TID 0000.0001) %MON ad_dynstat_advvel_max        =   3.2053499990520E-02
(PID.TID 0000.0001) %MON ad_dynstat_advvel_min        =  -2.0578439604060E-02
(PID.TID 0000.0001) %MON ad_dynstat_advvel_mean       =  -1.4998192946175E-04
(PID.TID 0000.0001) %MON ad_dynstat_advvel_sd         =   1.4548384879222E-03
(PID.TID 0000.0001) %MON ad_dynstat_advvel_del2       =   1.1329196089611E-04
(PID.TID 0000.0001) %MON ad_dynstat_adwvel_max        =   1.4673527037563E+00
(PID.TID 0000.0001) %MON ad_dynstat_adwvel_min        =  -8.4108581279977E-01
(PID.TID 0000.0001) %MON ad_dynstat_adwvel_mean       =   1.6106931233700E-04
(PID.TID 0000.0001) %MON ad_dynstat_adwvel_sd         =   2.2299267329990E-02
(PID.TID 0000.0001) %MON ad_dynstat_adwvel_del2       =   1.1584978504902E-03
(PID.TID 0000.0001) %MON ad_dynstat_adtheta_max       =   3.6526105554057E-03
(PID.TID 0000.0001) %MON ad_dynstat_adtheta_min       =  -3.5611274326102E-03
(PID.TID 0000.0001) %MON ad_dynstat_adtheta_mean      =   6.9774907792553E-07
(PID.TID 0000.0001) %MON ad_dynstat_adtheta_sd        =   1.5486974043824E-04
(PID.TID 0000.0001) %MON ad_dynstat_adtheta_del2      =   9.1837603617112E-06
(PID.TID 0000.0001) %MON ad_dynstat_adsalt_max        =   1.6544980349842E-02
(PID.TID 0000.0001) %MON ad_dynstat_adsalt_min        =  -1.6390817765523E-02
(PID.TID 0000.0001) %MON ad_dynstat_adsalt_mean       =  -3.4330337139761E-06
(PID.TID 0000.0001) %MON ad_dynstat_adsalt_sd         =   7.2720508062958E-04
(PID.TID 0000.0001) %MON ad_dynstat_adsalt_del2       =   4.3123177934193E-05
(PID.TID 0000.0001) %MON ad_dynstat_adsst_max         =   2.1557697602275E-04
(PID.TID 0000.0001) %MON ad_dynstat_adsst_min         =  -1.0751557084767E-04
(PID.TID 0000.0001) %MON ad_dynstat_adsst_mean        =  -9.2698021309282E-08
(PID.TID 0000.0001) %MON ad_dynstat_adsst_sd          =   7.3310299067259E-06
(PID.TID 0000.0001) %MON ad_dynstat_adsst_del2        =   6.5661706575550E-07
(PID.TID 0000.0001) %MON ad_dynstat_adsss_max         =   3.3728923398055E-04
(PID.TID 0000.0001) %MON ad_dynstat_adsss_min         =  -6.3841441832670E-04
(PID.TID 0000.0001) %MON ad_dynstat_adsss_mean        =  -2.0971222829840E-07
(PID.TID 0000.0001) %MON ad_dynstat_adsss_sd          =   2.4128337482755E-05
(PID.TID 0000.0001) %MON ad_dynstat_adsss_del2        =   2.4584150428922E-06
(PID.TID 0000.0001) %MON ad_extforcing_adqnet_max     =   0.0000000000000E+00
(PID.TID 0000.0001) %MON ad_extforcing_adqnet_min     =   0.0000000000000E+00
(PID.TID 0000.0001) %MON ad_extforcing_adqnet_mean    =   0.0000000000000E+00
(PID.TID 0000.0001) %MON ad_extforcing_adqnet_sd      =   0.0000000000000E+00
(PID.TID 0000.0001) %MON ad_extforcing_adqnet_del2    =   0.0000000000000E+00
(PID.TID 0000.0001) %MON ad_extforcing_adempmr_max    =   1.7523150547460E+03
(PID.TID 0000.0001) %MON ad_extforcing_adempmr_min    =  -1.8977250988555E+03
(PID.TID 0000.0001) %MON ad_extforcing_adempmr_mean   =   1.8266147051323E-01
(PID.TID 0000.0001) %MON ad_extforcing_adempmr_sd     =   9.6739486290651E+01
(PID.TID 0000.0001) %MON ad_extforcing_adempmr_del2   =   8.5847089830669E+00
(PID.TID 0000.0001) %MON ad_extforcing_adfu_max       =   0.0000000000000E+00
(PID.TID 0000.0001) %MON ad_extforcing_adfu_min       =   0.0000000000000E+00
(PID.TID 0000.0001) %MON ad_extforcing_adfu_mean      =   0.0000000000000E+00
(PID.TID 0000.0001) %MON ad_extforcing_adfu_sd        =   0.0000000000000E+00
(PID.TID 0000.0001) %MON ad_extforcing_adfu_del2      =   0.0000000000000E+00
(PID.TID 0000.0001) %MON ad_extforcing_adfv_max       =   0.0000000000000E+00
(PID.TID 0000.0001) %MON ad_extforcing_adfv_min       =   0.0000000000000E+00
(PID.TID 0000.0001) %MON ad_extforcing_adfv_mean      =   0.0000000000000E+00
(PID.TID 0000.0001) %MON ad_extforcing_adfv_sd        =   0.0000000000000E+00
(PID.TID 0000.0001) %MON ad_extforcing_adfv_del2      =   0.0000000000000E+00
(PID.TID 0000.0001) %MON ad_advcfl_aduvel_max         =   1.2669638212296E-03
(PID.TID 0000.0001) %MON ad_advcfl_advvel_max         =   3.1137404859117E-03
(PID.TID 0000.0001) %MON ad_advcfl_adwvel_max         =   3.0271204675417E+02
(PID.TID 0000.0001) %MON ad_advcfl_adW_hf_max         =   4.2735818365294E+02
(PID.TID 0000.0001) // =======================================================
(PID.TID 0000.0001) // End MONITOR dynamic field statistics
(PID.TID 0000.0001) // =======================================================
 cg2d: Sum(rhs),rhsMax =   6.50315218342357E-12  2.81748399895797E-08
time,SST,SSS,fu,fv,Q,E-P,i0,i1,a,b =   5.1840E+05  4.1526E-01  3.4504E+01 -3.8553E-02 -6.1154E-02  2.6537E+02  0.0000E+00    12     1  7.0000E-01  3.0000E-01
time,fu0,fu1,fu =   5.1840E+05 -4.5368E-02 -3.5633E-02 -3.8553E-02  7.000000000000000E-01  3.000000000000000E-01
 cg2d: Sum(rhs),rhsMax =  -9.28249664633451E-13  8.55637530605072E+00
time,SST,SSS,fu,fv,Q,E-P,i0,i1,a,b =   5.6160E+05  4.4544E-01  3.4516E+01 -3.8391E-02 -6.0938E-02  2.6539E+02  0.0000E+00    12     1  7.1667E-01  2.8333E-01
time,fu0,fu1,fu =   5.6160E+05 -4.5368E-02 -3.5633E-02 -3.8391E-02  7.166666666666667E-01  2.833333333333333E-01
 cg2d: Sum(rhs),rhsMax =  -8.64606997108552E-13  9.25214403713225E+00
time,SST,SSS,fu,fv,Q,E-P,i0,i1,a,b =   6.0480E+05  4.7561E-01  3.4527E+01 -3.8229E-02 -6.0721E-02  2.6541E+02  0.0000E+00    12     1  7.3333E-01  2.6667E-01
time,fu0,fu1,fu =   6.0480E+05 -4.5368E-02 -3.5633E-02 -3.8229E-02  7.333333333333333E-01  2.666666666666667E-01
 cg2d: Sum(rhs),rhsMax =  -8.67660110426272E-13  9.75412758742916E+00
(PID.TID 0000.0001) // =======================================================
(PID.TID 0000.0001) // Begin MONITOR dynamic field statistics
(PID.TID 0000.0001) // =======================================================
(PID.TID 0000.0001) %MON ad_time_tsnumber             =                    15
(PID.TID 0000.0001) %MON ad_time_secondsf             =   6.4800000000000E+05
(PID.TID 0000.0001) %MON ad_dynstat_adeta_max         =   1.9900549900290E-03
(PID.TID 0000.0001) %MON ad_dynstat_adeta_min         =  -2.8938653681807E-03
(PID.TID 0000.0001) %MON ad_dynstat_adeta_mean        =   4.6349922854142E-06
(PID.TID 0000.0001) %MON ad_dynstat_adeta_sd          =   2.2757811499995E-04
(PID.TID 0000.0001) %MON ad_dynstat_adeta_del2        =   2.4511048403618E-05
(PID.TID 0000.0001) %MON ad_dynstat_aduvel_max        =   1.1577785234163E-02
(PID.TID 0000.0001) %MON ad_dynstat_aduvel_min        =  -7.0837186235546E-03
(PID.TID 0000.0001) %MON ad_dynstat_aduvel_mean       =   1.3860873003126E-04
(PID.TID 0000.0001) %MON ad_dynstat_aduvel_sd         =   6.8116623501285E-04
(PID.TID 0000.0001) %MON ad_dynstat_aduvel_del2       =   3.8655914971223E-05
(PID.TID 0000.0001) %MON ad_dynstat_advvel_max        =   3.2269206569906E-02
(PID.TID 0000.0001) %MON ad_dynstat_advvel_min        =  -2.1074239270700E-02
(PID.TID 0000.0001) %MON ad_dynstat_advvel_mean       =  -1.4586640349153E-04
(PID.TID 0000.0001) %MON ad_dynstat_advvel_sd         =   1.4627832358396E-03
(PID.TID 0000.0001) %MON ad_dynstat_advvel_del2       =   1.1249897507256E-04
(PID.TID 0000.0001) %MON ad_dynstat_adwvel_max        =   1.4829874186039E+00
(PID.TID 0000.0001) %MON ad_dynstat_adwvel_min        =  -8.5178272529865E-01
(PID.TID 0000.0001) %MON ad_dynstat_adwvel_mean       =   1.5936260206672E-04
(PID.TID 0000.0001) %MON ad_dynstat_adwvel_sd         =   2.2779154296462E-02
(PID.TID 0000.0001) %MON ad_dynstat_adwvel_del2       =   1.2178262414020E-03
(PID.TID 0000.0001) %MON ad_dynstat_adtheta_max       =   3.6958528343501E-03
(PID.TID 0000.0001) %MON ad_dynstat_adtheta_min       =  -3.5963533141055E-03
(PID.TID 0000.0001) %MON ad_dynstat_adtheta_mean      =   7.0607176338353E-07
(PID.TID 0000.0001) %MON ad_dynstat_adtheta_sd        =   1.5675137097344E-04
(PID.TID 0000.0001) %MON ad_dynstat_adtheta_del2      =   9.4253106995361E-06
(PID.TID 0000.0001) %MON ad_dynstat_adsalt_max        =   1.6498818310211E-02
(PID.TID 0000.0001) %MON ad_dynstat_adsalt_min        =  -1.6543673928611E-02
(PID.TID 0000.0001) %MON ad_dynstat_adsalt_mean       =  -3.5488648413318E-06
(PID.TID 0000.0001) %MON ad_dynstat_adsalt_sd         =   7.3574477680197E-04
(PID.TID 0000.0001) %MON ad_dynstat_adsalt_del2       =   4.4123353995133E-05
(PID.TID 0000.0001) %MON ad_dynstat_adsst_max         =   2.0962245395091E-04
(PID.TID 0000.0001) %MON ad_dynstat_adsst_min         =  -1.0841093207507E-04
(PID.TID 0000.0001) %MON ad_dynstat_adsst_mean        =  -1.1544269409454E-07
(PID.TID 0000.0001) %MON ad_dynstat_adsst_sd          =   7.3383807315617E-06
(PID.TID 0000.0001) %MON ad_dynstat_adsst_del2        =   6.6636547410315E-07
(PID.TID 0000.0001) %MON ad_dynstat_adsss_max         =   3.4026967283574E-04
(PID.TID 0000.0001) %MON ad_dynstat_adsss_min         =  -6.2441761344085E-04
(PID.TID 0000.0001) %MON ad_dynstat_adsss_mean        =  -1.5437195325220E-07
(PID.TID 0000.0001) %MON ad_dynstat_adsss_sd          =   2.4209580950714E-05
(PID.TID 0000.0001) %MON ad_dynstat_adsss_del2        =   2.4852507798948E-06
(PID.TID 0000.0001) %MON ad_extforcing_adqnet_max     =   0.0000000000000E+00
(PID.TID 0000.0001) %MON ad_extforcing_adqnet_min     =   0.0000000000000E+00
(PID.TID 0000.0001) %MON ad_extforcing_adqnet_mean    =   0.0000000000000E+00
(PID.TID 0000.0001) %MON ad_extforcing_adqnet_sd      =   0.0000000000000E+00
(PID.TID 0000.0001) %MON ad_extforcing_adqnet_del2    =   0.0000000000000E+00
(PID.TID 0000.0001) %MON ad_extforcing_adempmr_max    =   1.7672775913763E+03
(PID.TID 0000.0001) %MON ad_extforcing_adempmr_min    =  -1.9127464380097E+03
(PID.TID 0000.0001) %MON ad_extforcing_adempmr_mean   =   1.7074712384792E-01
(PID.TID 0000.0001) %MON ad_extforcing_adempmr_sd     =   9.7439868357407E+01
(PID.TID 0000.0001) %MON ad_extforcing_adempmr_del2   =   8.6495201495816E+00
(PID.TID 0000.0001) %MON ad_extforcing_adfu_max       =   0.0000000000000E+00
(PID.TID 0000.0001) %MON ad_extforcing_adfu_min       =   0.0000000000000E+00
(PID.TID 0000.0001) %MON ad_extforcing_adfu_mean      =   0.0000000000000E+00
(PID.TID 0000.0001) %MON ad_extforcing_adfu_sd        =   0.0000000000000E+00
(PID.TID 0000.0001) %MON ad_extforcing_adfu_del2      =   0.0000000000000E+00
(PID.TID 0000.0001) %MON ad_extforcing_adfv_max       =   0.0000000000000E+00
(PID.TID 0000.0001) %MON ad_extforcing_adfv_min       =   0.0000000000000E+00
(PID.TID 0000.0001) %MON ad_extforcing_adfv_mean      =   0.0000000000000E+00
(PID.TID 0000.0001) %MON ad_extforcing_adfv_sd        =   0.0000000000000E+00
(PID.TID 0000.0001) %MON ad_extforcing_adfv_del2      =   0.0000000000000E+00
(PID.TID 0000.0001) %MON ad_advcfl_aduvel_max         =   1.2513311558465E-03
(PID.TID 0000.0001) %MON ad_advcfl_advvel_max         =   3.1346946503402E-03
(PID.TID 0000.0001) %MON ad_advcfl_adwvel_max         =   3.0674671564063E+02
(PID.TID 0000.0001) %MON ad_advcfl_adW_hf_max         =   4.3305418678677E+02
(PID.TID 0000.0001) // =======================================================
(PID.TID 0000.0001) // End MONITOR dynamic field statistics
(PID.TID 0000.0001) // =======================================================
 cg2d: Sum(rhs),rhsMax =   6.53797849192728E-12  2.85118903260852E-08
(PID.TID 0000.0001) // =======================================================
(PID.TID 0000.0001) // Begin MONITOR dynamic field statistics
(PID.TID 0000.0001) // =======================================================
(PID.TID 0000.0001) %MON ad_time_tsnumber             =                    14
(PID.TID 0000.0001) %MON ad_time_secondsf             =   6.0480000000000E+05
(PID.TID 0000.0001) %MON ad_dynstat_adeta_max         =   2.1111193378113E-03
(PID.TID 0000.0001) %MON ad_dynstat_adeta_min         =  -2.9319947706731E-03
(PID.TID 0000.0001) %MON ad_dynstat_adeta_mean        =   5.1166167284526E-06
(PID.TID 0000.0001) %MON ad_dynstat_adeta_sd          =   2.3081656885810E-04
(PID.TID 0000.0001) %MON ad_dynstat_adeta_del2        =   2.5118645940851E-05
(PID.TID 0000.0001) %MON ad_dynstat_aduvel_max        =   1.1385577053174E-02
(PID.TID 0000.0001) %MON ad_dynstat_aduvel_min        =  -6.9037616047908E-03
(PID.TID 0000.0001) %MON ad_dynstat_aduvel_mean       =   1.3860915339113E-04
(PID.TID 0000.0001) %MON ad_dynstat_aduvel_sd         =   6.7698237859875E-04
(PID.TID 0000.0001) %MON ad_dynstat_aduvel_del2       =   3.8774586223348E-05
(PID.TID 0000.0001) %MON ad_dynstat_advvel_max        =   3.2234008345125E-02
(PID.TID 0000.0001) %MON ad_dynstat_advvel_min        =  -2.1434143776170E-02
(PID.TID 0000.0001) %MON ad_dynstat_advvel_mean       =  -1.4072352165432E-04
(PID.TID 0000.0001) %MON ad_dynstat_advvel_sd         =   1.4624725194520E-03
(PID.TID 0000.0001) %MON ad_dynstat_advvel_del2       =   1.1109831404930E-04
(PID.TID 0000.0001) %MON ad_dynstat_adwvel_max        =   1.4999458110052E+00
(PID.TID 0000.0001) %MON ad_dynstat_adwvel_min        =  -8.6284114164000E-01
(PID.TID 0000.0001) %MON ad_dynstat_adwvel_mean       =   1.5798345700416E-04
(PID.TID 0000.0001) %MON ad_dynstat_adwvel_sd         =   2.3337039699795E-02
(PID.TID 0000.0001) %MON ad_dynstat_adwvel_del2       =   1.2815313441584E-03
(PID.TID 0000.0001) %MON ad_dynstat_adtheta_max       =   3.7401414754848E-03
(PID.TID 0000.0001) %MON ad_dynstat_adtheta_min       =  -3.6344869123794E-03
(PID.TID 0000.0001) %MON ad_dynstat_adtheta_mean      =   7.1395919832930E-07
(PID.TID 0000.0001) %MON ad_dynstat_adtheta_sd        =   1.5878268835060E-04
(PID.TID 0000.0001) %MON ad_dynstat_adtheta_del2      =   9.6746968856895E-06
(PID.TID 0000.0001) %MON ad_dynstat_adsalt_max        =   1.6446943780972E-02
(PID.TID 0000.0001) %MON ad_dynstat_adsalt_min        =  -1.6694772439830E-02
(PID.TID 0000.0001) %MON ad_dynstat_adsalt_mean       =  -3.6643013167591E-06
(PID.TID 0000.0001) %MON ad_dynstat_adsalt_sd         =   7.4486151337258E-04
(PID.TID 0000.0001) %MON ad_dynstat_adsalt_del2       =   4.5137529728464E-05
(PID.TID 0000.0001) %MON ad_dynstat_adsst_max         =   2.0447978443606E-04
(PID.TID 0000.0001) %MON ad_dynstat_adsst_min         =  -1.0920111928875E-04
(PID.TID 0000.0001) %MON ad_dynstat_adsst_mean        =  -1.3353079715907E-07
(PID.TID 0000.0001) %MON ad_dynstat_adsst_sd          =   7.3588151396080E-06
(PID.TID 0000.0001) %MON ad_dynstat_adsst_del2        =   6.7226134933972E-07
(PID.TID 0000.0001) %MON ad_dynstat_adsss_max         =   3.4287536890651E-04
(PID.TID 0000.0001) %MON ad_dynstat_adsss_min         =  -6.1258576289431E-04
(PID.TID 0000.0001) %MON ad_dynstat_adsss_mean        =  -1.1254205943116E-07
(PID.TID 0000.0001) %MON ad_dynstat_adsss_sd          =   2.4327755516364E-05
(PID.TID 0000.0001) %MON ad_dynstat_adsss_del2        =   2.5081549911879E-06
(PID.TID 0000.0001) %MON ad_extforcing_adqnet_max     =   0.0000000000000E+00
(PID.TID 0000.0001) %MON ad_extforcing_adqnet_min     =   0.0000000000000E+00
(PID.TID 0000.0001) %MON ad_extforcing_adqnet_mean    =   0.0000000000000E+00
(PID.TID 0000.0001) %MON ad_extforcing_adqnet_sd      =   0.0000000000000E+00
(PID.TID 0000.0001) %MON ad_extforcing_adqnet_del2    =   0.0000000000000E+00
(PID.TID 0000.0001) %MON ad_extforcing_adempmr_max    =   1.7823412818320E+03
(PID.TID 0000.0001) %MON ad_extforcing_adempmr_min    =  -1.9279614408903E+03
(PID.TID 0000.0001) %MON ad_extforcing_adempmr_mean   =   1.6013540401705E-01
(PID.TID 0000.0001) %MON ad_extforcing_adempmr_sd     =   9.8163004575277E+01
(PID.TID 0000.0001) %MON ad_extforcing_adempmr_del2   =   8.7164058133164E+00
(PID.TID 0000.0001) %MON ad_extforcing_adfu_max       =   0.0000000000000E+00
(PID.TID 0000.0001) %MON ad_extforcing_adfu_min       =   0.0000000000000E+00
(PID.TID 0000.0001) %MON ad_extforcing_adfu_mean      =   0.0000000000000E+00
(PID.TID 0000.0001) %MON ad_extforcing_adfu_sd        =   0.0000000000000E+00
(PID.TID 0000.0001) %MON ad_extforcing_adfu_del2      =   0.0000000000000E+00
(PID.TID 0000.0001) %MON ad_extforcing_adfv_max       =   0.0000000000000E+00
(PID.TID 0000.0001) %MON ad_extforcing_adfv_min       =   0.0000000000000E+00
(PID.TID 0000.0001) %MON ad_extforcing_adfv_mean      =   0.0000000000000E+00
(PID.TID 0000.0001) %MON ad_extforcing_adfv_sd        =   0.0000000000000E+00
(PID.TID 0000.0001) %MON ad_extforcing_adfv_del2      =   0.0000000000000E+00
(PID.TID 0000.0001) %MON ad_advcfl_aduvel_max         =   1.2305572271187E-03
(PID.TID 0000.0001) %MON ad_advcfl_advvel_max         =   3.1312754250586E-03
(PID.TID 0000.0001) %MON ad_advcfl_adwvel_max         =   3.1104822916541E+02
(PID.TID 0000.0001) %MON ad_advcfl_adW_hf_max         =   4.3912691176294E+02
(PID.TID 0000.0001) // =======================================================
(PID.TID 0000.0001) // End MONITOR dynamic field statistics
(PID.TID 0000.0001) // =======================================================
 cg2d: Sum(rhs),rhsMax =   6.54030996027899E-12  2.88454778186083E-08
(PID.TID 0000.0001) // =======================================================
(PID.TID 0000.0001) // Begin MONITOR dynamic field statistics
(PID.TID 0000.0001) // =======================================================
(PID.TID 0000.0001) %MON ad_time_tsnumber             =                    13
(PID.TID 0000.0001) %MON ad_time_secondsf             =   5.6160000000000E+05
(PID.TID 0000.0001) %MON ad_dynstat_adeta_max         =   2.2342933969698E-03
(PID.TID 0000.0001) %MON ad_dynstat_adeta_min         =  -2.9698820772443E-03
(PID.TID 0000.0001) %MON ad_dynstat_adeta_mean        =   5.5848419290424E-06
(PID.TID 0000.0001) %MON ad_dynstat_adeta_sd          =   2.3489398474054E-04
(PID.TID 0000.0001) %MON ad_dynstat_adeta_del2        =   2.5718091596195E-05
(PID.TID 0000.0001) %MON ad_dynstat_aduvel_max        =   1.1147115491075E-02
(PID.TID 0000.0001) %MON ad_dynstat_aduvel_min        =  -6.7017442085690E-03
(PID.TID 0000.0001) %MON ad_dynstat_aduvel_mean       =   1.3790687263164E-04
(PID.TID 0000.0001) %MON ad_dynstat_aduvel_sd         =   6.7253223549517E-04
(PID.TID 0000.0001) %MON ad_dynstat_aduvel_del2       =   3.8850767070453E-05
(PID.TID 0000.0001) %MON ad_dynstat_advvel_max        =   3.1951147227638E-02
(PID.TID 0000.0001) %MON ad_dynstat_advvel_min        =  -2.1657278252421E-02
(PID.TID 0000.0001) %MON ad_dynstat_advvel_mean       =  -1.3460258749567E-04
(PID.TID 0000.0001) %MON ad_dynstat_advvel_sd         =   1.4541350553523E-03
(PID.TID 0000.0001) %MON ad_dynstat_advvel_del2       =   1.0910899329739E-04
(PID.TID 0000.0001) %MON ad_dynstat_adwvel_max        =   1.5182875654571E+00
(PID.TID 0000.0001) %MON ad_dynstat_adwvel_min        =  -8.7405950372942E-01
(PID.TID 0000.0001) %MON ad_dynstat_adwvel_mean       =   1.5728884940146E-04
(PID.TID 0000.0001) %MON ad_dynstat_adwvel_sd         =   2.3955735112556E-02
(PID.TID 0000.0001) %MON ad_dynstat_adwvel_del2       =   1.3456227614130E-03
(PID.TID 0000.0001) %MON ad_dynstat_adtheta_max       =   3.7847943460271E-03
(PID.TID 0000.0001) %MON ad_dynstat_adtheta_min       =  -3.6753847867531E-03
(PID.TID 0000.0001) %MON ad_dynstat_adtheta_mean      =   7.2107912040593E-07
(PID.TID 0000.0001) %MON ad_dynstat_adtheta_sd        =   1.6090898417225E-04
(PID.TID 0000.0001) %MON ad_dynstat_adtheta_del2      =   9.9271615517699E-06
(PID.TID 0000.0001) %MON ad_dynstat_adsalt_max        =   1.6391010012427E-02
(PID.TID 0000.0001) %MON ad_dynstat_adsalt_min        =  -1.6841132148624E-02
(PID.TID 0000.0001) %MON ad_dynstat_adsalt_mean       =  -3.7777202805973E-06
(PID.TID 0000.0001) %MON ad_dynstat_adsalt_sd         =   7.5431354510391E-04
(PID.TID 0000.0001) %MON ad_dynstat_adsalt_del2       =   4.6146877856296E-05
(PID.TID 0000.0001) %MON ad_dynstat_adsst_max         =   1.9949641546102E-04
(PID.TID 0000.0001) %MON ad_dynstat_adsst_min         =  -1.0968717952931E-04
(PID.TID 0000.0001) %MON ad_dynstat_adsst_mean        =  -1.5225063397283E-07
(PID.TID 0000.0001) %MON ad_dynstat_adsst_sd          =   7.3717412048486E-06
(PID.TID 0000.0001) %MON ad_dynstat_adsst_del2        =   6.7625236940021E-07
(PID.TID 0000.0001) %MON ad_dynstat_adsss_max         =   3.4455317939180E-04
(PID.TID 0000.0001) %MON ad_dynstat_adsss_min         =  -6.0115932447488E-04
(PID.TID 0000.0001) %MON ad_dynstat_adsss_mean        =  -6.7248137309757E-08
(PID.TID 0000.0001) %MON ad_dynstat_adsss_sd          =   2.4443766875942E-05
(PID.TID 0000.0001) %MON ad_dynstat_adsss_del2        =   2.5199028548481E-06
(PID.TID 0000.0001) %MON ad_extforcing_adqnet_max     =   0.0000000000000E+00
(PID.TID 0000.0001) %MON ad_extforcing_adqnet_min     =   0.0000000000000E+00
(PID.TID 0000.0001) %MON ad_extforcing_adqnet_mean    =   0.0000000000000E+00
(PID.TID 0000.0001) %MON ad_extforcing_adqnet_sd      =   0.0000000000000E+00
(PID.TID 0000.0001) %MON ad_extforcing_adqnet_del2    =   0.0000000000000E+00
(PID.TID 0000.0001) %MON ad_extforcing_adempmr_max    =   1.7974907182234E+03
(PID.TID 0000.0001) %MON ad_extforcing_adempmr_min    =  -1.9433828320519E+03
(PID.TID 0000.0001) %MON ad_extforcing_adempmr_mean   =   1.5003030017916E-01
(PID.TID 0000.0001) %MON ad_extforcing_adempmr_sd     =   9.8908790908869E+01
(PID.TID 0000.0001) %MON ad_extforcing_adempmr_del2   =   8.7854011208645E+00
(PID.TID 0000.0001) %MON ad_extforcing_adfu_max       =   0.0000000000000E+00
(PID.TID 0000.0001) %MON ad_extforcing_adfu_min       =   0.0000000000000E+00
(PID.TID 0000.0001) %MON ad_extforcing_adfu_mean      =   0.0000000000000E+00
(PID.TID 0000.0001) %MON ad_extforcing_adfu_sd        =   0.0000000000000E+00
(PID.TID 0000.0001) %MON ad_extforcing_adfu_del2      =   0.0000000000000E+00
(PID.TID 0000.0001) %MON ad_extforcing_adfv_max       =   0.0000000000000E+00
(PID.TID 0000.0001) %MON ad_extforcing_adfv_min       =   0.0000000000000E+00
(PID.TID 0000.0001) %MON ad_extforcing_adfv_mean      =   0.0000000000000E+00
(PID.TID 0000.0001) %MON ad_extforcing_adfv_sd        =   0.0000000000000E+00
(PID.TID 0000.0001) %MON ad_extforcing_adfv_del2      =   0.0000000000000E+00
(PID.TID 0000.0001) %MON ad_advcfl_aduvel_max         =   1.2047842164701E-03
(PID.TID 0000.0001) %MON ad_advcfl_advvel_max         =   3.1037977357682E-03
(PID.TID 0000.0001) %MON ad_advcfl_adwvel_max         =   3.1558592195625E+02
(PID.TID 0000.0001) %MON ad_advcfl_adW_hf_max         =   4.4553306629117E+02
(PID.TID 0000.0001) // =======================================================
(PID.TID 0000.0001) // End MONITOR dynamic field statistics
(PID.TID 0000.0001) // =======================================================
 cg2d: Sum(rhs),rhsMax =   6.53727072474908E-12  2.91785510959115E-08
time,SST,SSS,fu,fv,Q,E-P,i0,i1,a,b =   3.8880E+05  3.2473E-01  3.4469E+01 -3.9040E-02 -6.1804E-02  2.6530E+02  0.0000E+00    12     1  6.5000E-01  3.5000E-01
time,fu0,fu1,fu =   3.8880E+05 -4.5368E-02 -3.5633E-02 -3.9040E-02  6.500000000000000E-01  3.500000000000000E-01
 cg2d: Sum(rhs),rhsMax =  -3.57795390537596E-13  8.31512136376637E+00
time,SST,SSS,fu,fv,Q,E-P,i0,i1,a,b =   4.3200E+05  3.5491E-01  3.4481E+01 -3.8878E-02 -6.1587E-02  2.6532E+02  0.0000E+00    12     1  6.6667E-01  3.3333E-01
time,fu0,fu1,fu =   4.3200E+05 -4.5368E-02 -3.5633E-02 -3.8878E-02  6.666666666666666E-01  3.333333333333334E-01
 cg2d: Sum(rhs),rhsMax =  -5.34450088351957E-13  8.25257067290290E+00
time,SST,SSS,fu,fv,Q,E-P,i0,i1,a,b =   4.7520E+05  3.8508E-01  3.4492E+01 -3.8716E-02 -6.1371E-02  2.6534E+02  0.0000E+00    12     1  6.8333E-01  3.1667E-01
time,fu0,fu1,fu =   4.7520E+05 -4.5368E-02 -3.5633E-02 -3.8716E-02  6.833333333333333E-01  3.166666666666667E-01
 cg2d: Sum(rhs),rhsMax =  -1.05512820702813E-12  8.09293762885826E+00
(PID.TID 0000.0001) // =======================================================
(PID.TID 0000.0001) // Begin MONITOR dynamic field statistics
(PID.TID 0000.0001) // =======================================================
(PID.TID 0000.0001) %MON ad_time_tsnumber             =                    12
(PID.TID 0000.0001) %MON ad_time_secondsf             =   5.1840000000000E+05
(PID.TID 0000.0001) %MON ad_dynstat_adeta_max         =   2.3595918588067E-03
(PID.TID 0000.0001) %MON ad_dynstat_adeta_min         =  -3.0077298100965E-03
(PID.TID 0000.0001) %MON ad_dynstat_adeta_mean        =   6.0363231772983E-06
(PID.TID 0000.0001) %MON ad_dynstat_adeta_sd          =   2.3966201563732E-04
(PID.TID 0000.0001) %MON ad_dynstat_adeta_del2        =   2.6313400731588E-05
(PID.TID 0000.0001) %MON ad_dynstat_aduvel_max        =   1.0864214621057E-02
(PID.TID 0000.0001) %MON ad_dynstat_aduvel_min        =  -6.4783292205093E-03
(PID.TID 0000.0001) %MON ad_dynstat_aduvel_mean       =   1.3646610260947E-04
(PID.TID 0000.0001) %MON ad_dynstat_aduvel_sd         =   6.6793438479893E-04
(PID.TID 0000.0001) %MON ad_dynstat_aduvel_del2       =   3.8910220798314E-05
(PID.TID 0000.0001) %MON ad_dynstat_advvel_max        =   3.1426204952616E-02
(PID.TID 0000.0001) %MON ad_dynstat_advvel_min        =  -2.1852747193481E-02
(PID.TID 0000.0001) %MON ad_dynstat_advvel_mean       =  -1.2756205376920E-04
(PID.TID 0000.0001) %MON ad_dynstat_advvel_sd         =   1.4381692091108E-03
(PID.TID 0000.0001) %MON ad_dynstat_advvel_del2       =   1.0663537711166E-04
(PID.TID 0000.0001) %MON ad_dynstat_adwvel_max        =   1.5380385308491E+00
(PID.TID 0000.0001) %MON ad_dynstat_adwvel_min        =  -8.8522207799561E-01
(PID.TID 0000.0001) %MON ad_dynstat_adwvel_mean       =   1.5693637764041E-04
(PID.TID 0000.0001) %MON ad_dynstat_adwvel_sd         =   2.4616502443614E-02
(PID.TID 0000.0001) %MON ad_dynstat_adwvel_del2       =   1.4099149391514E-03
(PID.TID 0000.0001) %MON ad_dynstat_adtheta_max       =   3.8291411734396E-03
(PID.TID 0000.0001) %MON ad_dynstat_adtheta_min       =  -3.7188291979457E-03
(PID.TID 0000.0001) %MON ad_dynstat_adtheta_mean      =   7.2733233639917E-07
(PID.TID 0000.0001) %MON ad_dynstat_adtheta_sd        =   1.6307297381632E-04
(PID.TID 0000.0001) %MON ad_dynstat_adtheta_del2      =   1.0172528314370E-05
(PID.TID 0000.0001) %MON ad_dynstat_adsalt_max        =   1.6332608148094E-02
(PID.TID 0000.0001) %MON ad_dynstat_adsalt_min        =  -1.6979880412459E-02
(PID.TID 0000.0001) %MON ad_dynstat_adsalt_mean       =  -3.8883333661440E-06
(PID.TID 0000.0001) %MON ad_dynstat_adsalt_sd         =   7.6384885202342E-04
(PID.TID 0000.0001) %MON ad_dynstat_adsalt_del2       =   4.7129004452731E-05
(PID.TID 0000.0001) %MON ad_dynstat_adsst_max         =   1.9571121636470E-04
(PID.TID 0000.0001) %MON ad_dynstat_adsst_min         =  -1.0959982810275E-04
(PID.TID 0000.0001) %MON ad_dynstat_adsst_mean        =  -1.6836160779724E-07
(PID.TID 0000.0001) %MON ad_dynstat_adsst_sd          =   7.3960504780897E-06
(PID.TID 0000.0001) %MON ad_dynstat_adsst_del2        =   6.8469170394950E-07
(PID.TID 0000.0001) %MON ad_dynstat_adsss_max         =   3.4457357409929E-04
(PID.TID 0000.0001) %MON ad_dynstat_adsss_min         =  -5.9300645127850E-04
(PID.TID 0000.0001) %MON ad_dynstat_adsss_mean        =  -3.0089158594241E-08
(PID.TID 0000.0001) %MON ad_dynstat_adsss_sd          =   2.4575725539277E-05
(PID.TID 0000.0001) %MON ad_dynstat_adsss_del2        =   2.5482226029140E-06
(PID.TID 0000.0001) %MON ad_extforcing_adqnet_max     =   0.0000000000000E+00
(PID.TID 0000.0001) %MON ad_extforcing_adqnet_min     =   0.0000000000000E+00
(PID.TID 0000.0001) %MON ad_extforcing_adqnet_mean    =   0.0000000000000E+00
(PID.TID 0000.0001) %MON ad_extforcing_adqnet_sd      =   0.0000000000000E+00
(PID.TID 0000.0001) %MON ad_extforcing_adqnet_del2    =   0.0000000000000E+00
(PID.TID 0000.0001) %MON ad_extforcing_adempmr_max    =   1.8126925387167E+03
(PID.TID 0000.0001) %MON ad_extforcing_adempmr_min    =  -1.9590380501627E+03
(PID.TID 0000.0001) %MON ad_extforcing_adempmr_mean   =   1.4127707865230E-01
(PID.TID 0000.0001) %MON ad_extforcing_adempmr_sd     =   9.9673722400497E+01
(PID.TID 0000.0001) %MON ad_extforcing_adempmr_del2   =   8.8563024550649E+00
(PID.TID 0000.0001) %MON ad_extforcing_adfu_max       =   0.0000000000000E+00
(PID.TID 0000.0001) %MON ad_extforcing_adfu_min       =   0.0000000000000E+00
(PID.TID 0000.0001) %MON ad_extforcing_adfu_mean      =   0.0000000000000E+00
(PID.TID 0000.0001) %MON ad_extforcing_adfu_sd        =   0.0000000000000E+00
(PID.TID 0000.0001) %MON ad_extforcing_adfu_del2      =   0.0000000000000E+00
(PID.TID 0000.0001) %MON ad_extforcing_adfv_max       =   0.0000000000000E+00
(PID.TID 0000.0001) %MON ad_extforcing_adfv_min       =   0.0000000000000E+00
(PID.TID 0000.0001) %MON ad_extforcing_adfv_mean      =   0.0000000000000E+00
(PID.TID 0000.0001) %MON ad_extforcing_adfv_sd        =   0.0000000000000E+00
(PID.TID 0000.0001) %MON ad_extforcing_adfv_del2      =   0.0000000000000E+00
(PID.TID 0000.0001) %MON ad_advcfl_aduvel_max         =   1.1742081895781E-03
(PID.TID 0000.0001) %MON ad_advcfl_advvel_max         =   3.0528038032808E-03
(PID.TID 0000.0001) %MON ad_advcfl_adwvel_max         =   3.2032871711683E+02
(PID.TID 0000.0001) %MON ad_advcfl_adW_hf_max         =   4.5222877710611E+02
(PID.TID 0000.0001) // =======================================================
(PID.TID 0000.0001) // End MONITOR dynamic field statistics
(PID.TID 0000.0001) // =======================================================
 cg2d: Sum(rhs),rhsMax =   6.50930698231633E-12  2.95104193862080E-08
(PID.TID 0000.0001) // =======================================================
(PID.TID 0000.0001) // Begin MONITOR dynamic field statistics
(PID.TID 0000.0001) // =======================================================
(PID.TID 0000.0001) %MON ad_time_tsnumber             =                    11
(PID.TID 0000.0001) %MON ad_time_secondsf             =   4.7520000000000E+05
(PID.TID 0000.0001) %MON ad_dynstat_adeta_max         =   2.4867747793814E-03
(PID.TID 0000.0001) %MON ad_dynstat_adeta_min         =  -3.0452235606737E-03
(PID.TID 0000.0001) %MON ad_dynstat_adeta_mean        =   6.4678838633680E-06
(PID.TID 0000.0001) %MON ad_dynstat_adeta_sd          =   2.4494619145217E-04
(PID.TID 0000.0001) %MON ad_dynstat_adeta_del2        =   2.7009740435247E-05
(PID.TID 0000.0001) %MON ad_dynstat_aduvel_max        =   1.0539193504149E-02
(PID.TID 0000.0001) %MON ad_dynstat_aduvel_min        =  -6.2343119930787E-03
(PID.TID 0000.0001) %MON ad_dynstat_aduvel_mean       =   1.3426191386460E-04
(PID.TID 0000.0001) %MON ad_dynstat_aduvel_sd         =   6.6332020236150E-04
(PID.TID 0000.0001) %MON ad_dynstat_aduvel_del2       =   3.8922805503555E-05
(PID.TID 0000.0001) %MON ad_dynstat_advvel_max        =   3.0667046676383E-02
(PID.TID 0000.0001) %MON ad_dynstat_advvel_min        =  -2.2135526483206E-02
(PID.TID 0000.0001) %MON ad_dynstat_advvel_mean       =  -1.1967169057603E-04
(PID.TID 0000.0001) %MON ad_dynstat_advvel_sd         =   1.4151140379995E-03
(PID.TID 0000.0001) %MON ad_dynstat_advvel_del2       =   1.0382425360006E-04
(PID.TID 0000.0001) %MON ad_dynstat_adwvel_max        =   1.5591646556965E+00
(PID.TID 0000.0001) %MON ad_dynstat_adwvel_min        =  -8.9614797702287E-01
(PID.TID 0000.0001) %MON ad_dynstat_adwvel_mean       =   1.5718418684552E-04
(PID.TID 0000.0001) %MON ad_dynstat_adwvel_sd         =   2.5300457428212E-02
(PID.TID 0000.0001) %MON ad_dynstat_adwvel_del2       =   1.4724284090077E-03
(PID.TID 0000.0001) %MON ad_dynstat_adtheta_max       =   3.8725794843356E-03
(PID.TID 0000.0001) %MON ad_dynstat_adtheta_min       =  -3.7644871244604E-03
(PID.TID 0000.0001) %MON ad_dynstat_adtheta_mean      =   7.3265275368363E-07
(PID.TID 0000.0001) %MON ad_dynstat_adtheta_sd        =   1.6521745437784E-04
(PID.TID 0000.0001) %MON ad_dynstat_adtheta_del2      =   1.0397200584172E-05
(PID.TID 0000.0001) %MON ad_dynstat_adsalt_max        =   1.6273341703569E-02
(PID.TID 0000.0001) %MON ad_dynstat_adsalt_min        =  -1.7108516505284E-02
(PID.TID 0000.0001) %MON ad_dynstat_adsalt_mean       =  -3.9954512598302E-06
(PID.TID 0000.0001) %MON ad_dynstat_adsalt_sd         =   7.7321776947673E-04
(PID.TID 0000.0001) %MON ad_dynstat_adsalt_del2       =   4.8019235751776E-05
(PID.TID 0000.0001) %MON ad_dynstat_adsst_max         =   1.9268887491247E-04
(PID.TID 0000.0001) %MON ad_dynstat_adsst_min         =  -1.0848109544585E-04
(PID.TID 0000.0001) %MON ad_dynstat_adsst_mean        =  -1.8334764086755E-07
(PID.TID 0000.0001) %MON ad_dynstat_adsst_sd          =   7.4162226100514E-06
(PID.TID 0000.0001) %MON ad_dynstat_adsst_del2        =   6.9300574292044E-07
(PID.TID 0000.0001) %MON ad_dynstat_adsss_max         =   3.4171811176903E-04
(PID.TID 0000.0001) %MON ad_dynstat_adsss_min         =  -5.8701880089411E-04
(PID.TID 0000.0001) %MON ad_dynstat_adsss_mean        =   3.5197843238591E-09
(PID.TID 0000.0001) %MON ad_dynstat_adsss_sd          =   2.4692449708573E-05
(PID.TID 0000.0001) %MON ad_dynstat_adsss_del2        =   2.5823292817703E-06
(PID.TID 0000.0001) %MON ad_extforcing_adqnet_max     =   0.0000000000000E+00
(PID.TID 0000.0001) %MON ad_extforcing_adqnet_min     =   0.0000000000000E+00
(PID.TID 0000.0001) %MON ad_extforcing_adqnet_mean    =   0.0000000000000E+00
(PID.TID 0000.0001) %MON ad_extforcing_adqnet_sd      =   0.0000000000000E+00
(PID.TID 0000.0001) %MON ad_extforcing_adqnet_del2    =   0.0000000000000E+00
(PID.TID 0000.0001) %MON ad_extforcing_adempmr_max    =   1.8278905544107E+03
(PID.TID 0000.0001) %MON ad_extforcing_adempmr_min    =  -1.9749598975830E+03
(PID.TID 0000.0001) %MON ad_extforcing_adempmr_mean   =   1.3331320520865E-01
(PID.TID 0000.0001) %MON ad_extforcing_adempmr_sd     =   1.0045836982692E+02
(PID.TID 0000.0001) %MON ad_extforcing_adempmr_del2   =   8.9291379072312E+00
(PID.TID 0000.0001) %MON ad_extforcing_adfu_max       =   0.0000000000000E+00
(PID.TID 0000.0001) %MON ad_extforcing_adfu_min       =   0.0000000000000E+00
(PID.TID 0000.0001) %MON ad_extforcing_adfu_mean      =   0.0000000000000E+00
(PID.TID 0000.0001) %MON ad_extforcing_adfu_sd        =   0.0000000000000E+00
(PID.TID 0000.0001) %MON ad_extforcing_adfu_del2      =   0.0000000000000E+00
(PID.TID 0000.0001) %MON ad_extforcing_adfv_max       =   0.0000000000000E+00
(PID.TID 0000.0001) %MON ad_extforcing_adfv_min       =   0.0000000000000E+00
(PID.TID 0000.0001) %MON ad_extforcing_adfv_mean      =   0.0000000000000E+00
(PID.TID 0000.0001) %MON ad_extforcing_adfv_sd        =   0.0000000000000E+00
(PID.TID 0000.0001) %MON ad_extforcing_adfv_del2      =   0.0000000000000E+00
(PID.TID 0000.0001) %MON ad_advcfl_aduvel_max         =   1.1390797913855E-03
(PID.TID 0000.0001) %MON ad_advcfl_advvel_max         =   2.9790576644622E-03
(PID.TID 0000.0001) %MON ad_advcfl_adwvel_max         =   3.2525723765709E+02
(PID.TID 0000.0001) %MON ad_advcfl_adW_hf_max         =   4.5918668845706E+02
(PID.TID 0000.0001) // =======================================================
(PID.TID 0000.0001) // End MONITOR dynamic field statistics
(PID.TID 0000.0001) // =======================================================
 cg2d: Sum(rhs),rhsMax =   6.47827624877806E-12  2.98393859869557E-08
 myIter=  10
 ph-mnc in addummy param  T
 ph-mnc in addummy myiter  10
(PID.TID 0000.0001) // =======================================================
(PID.TID 0000.0001) // Begin MONITOR dynamic field statistics
(PID.TID 0000.0001) // =======================================================
(PID.TID 0000.0001) %MON ad_time_tsnumber             =                    10
(PID.TID 0000.0001) %MON ad_time_secondsf             =   4.3200000000000E+05
(PID.TID 0000.0001) %MON ad_dynstat_adeta_max         =   2.6156054777244E-03
(PID.TID 0000.0001) %MON ad_dynstat_adeta_min         =  -3.0816331016042E-03
(PID.TID 0000.0001) %MON ad_dynstat_adeta_mean        =   6.9765555311110E-06
(PID.TID 0000.0001) %MON ad_dynstat_adeta_sd          =   2.5061829929391E-04
(PID.TID 0000.0001) %MON ad_dynstat_adeta_del2        =   2.7664809251341E-05
(PID.TID 0000.0001) %MON ad_dynstat_aduvel_max        =   1.0174469551201E-02
(PID.TID 0000.0001) %MON ad_dynstat_aduvel_min        =  -5.9707443756469E-03
(PID.TID 0000.0001) %MON ad_dynstat_aduvel_mean       =   1.3239188097301E-04
(PID.TID 0000.0001) %MON ad_dynstat_aduvel_sd         =   6.5880220251302E-04
(PID.TID 0000.0001) %MON ad_dynstat_aduvel_del2       =   3.8372624299466E-05
(PID.TID 0000.0001) %MON ad_dynstat_advvel_max        =   2.9683099432381E-02
(PID.TID 0000.0001) %MON ad_dynstat_advvel_min        =  -2.2304494362282E-02
(PID.TID 0000.0001) %MON ad_dynstat_advvel_mean       =  -1.1102848802757E-04
(PID.TID 0000.0001) %MON ad_dynstat_advvel_sd         =   1.3856580667412E-03
(PID.TID 0000.0001) %MON ad_dynstat_advvel_del2       =   1.0075028673740E-04
(PID.TID 0000.0001) %MON ad_dynstat_adwvel_max        =   1.5815367183028E+00
(PID.TID 0000.0001) %MON ad_dynstat_adwvel_min        =  -9.0671839426785E-01
(PID.TID 0000.0001) %MON ad_dynstat_adwvel_mean       =   1.5787133474565E-04
(PID.TID 0000.0001) %MON ad_dynstat_adwvel_sd         =   2.5988620756402E-02
(PID.TID 0000.0001) %MON ad_dynstat_adwvel_del2       =   1.5306771613526E-03
(PID.TID 0000.0001) %MON ad_dynstat_adtheta_max       =   3.9145976257427E-03
(PID.TID 0000.0001) %MON ad_dynstat_adtheta_min       =  -3.8118707684399E-03
(PID.TID 0000.0001) %MON ad_dynstat_adtheta_mean      =   7.1719676811181E-07
(PID.TID 0000.0001) %MON ad_dynstat_adtheta_sd        =   1.6728844238694E-04
(PID.TID 0000.0001) %MON ad_dynstat_adtheta_del2      =   1.0570190162914E-05
(PID.TID 0000.0001) %MON ad_dynstat_adsalt_max        =   1.6214540594140E-02
(PID.TID 0000.0001) %MON ad_dynstat_adsalt_min        =  -1.7225006576226E-02
(PID.TID 0000.0001) %MON ad_dynstat_adsalt_mean       =  -4.0275749359982E-06
(PID.TID 0000.0001) %MON ad_dynstat_adsalt_sd         =   7.8218551243665E-04
(PID.TID 0000.0001) %MON ad_dynstat_adsalt_del2       =   4.8632015963377E-05
(PID.TID 0000.0001) %MON ad_dynstat_adsst_max         =   1.9007680288303E-04
(PID.TID 0000.0001) %MON ad_dynstat_adsst_min         =  -1.0231584171290E-04
(PID.TID 0000.0001) %MON ad_dynstat_adsst_mean        =  -2.0612664955465E-07
(PID.TID 0000.0001) %MON ad_dynstat_adsst_sd          =   7.4302301289092E-06
(PID.TID 0000.0001) %MON ad_dynstat_adsst_del2        =   6.8068145439261E-07
(PID.TID 0000.0001) %MON ad_dynstat_adsss_max         =   3.2501378399664E-04
(PID.TID 0000.0001) %MON ad_dynstat_adsss_min         =  -5.8227230241977E-04
(PID.TID 0000.0001) %MON ad_dynstat_adsss_mean        =   3.4846920419183E-08
(PID.TID 0000.0001) %MON ad_dynstat_adsss_sd          =   2.4806195137400E-05
(PID.TID 0000.0001) %MON ad_dynstat_adsss_del2        =   2.5170876417779E-06
(PID.TID 0000.0001) %MON ad_extforcing_adqnet_max     =   0.0000000000000E+00
(PID.TID 0000.0001) %MON ad_extforcing_adqnet_min     =   0.0000000000000E+00
(PID.TID 0000.0001) %MON ad_extforcing_adqnet_mean    =   0.0000000000000E+00
(PID.TID 0000.0001) %MON ad_extforcing_adqnet_sd      =   0.0000000000000E+00
(PID.TID 0000.0001) %MON ad_extforcing_adqnet_del2    =   0.0000000000000E+00
(PID.TID 0000.0001) %MON ad_extforcing_adempmr_max    =   1.8426895919475E+03
(PID.TID 0000.0001) %MON ad_extforcing_adempmr_min    =  -1.9911770862630E+03
(PID.TID 0000.0001) %MON ad_extforcing_adempmr_mean   =   1.2611650635239E-01
(PID.TID 0000.0001) %MON ad_extforcing_adempmr_sd     =   1.0125729261037E+02
(PID.TID 0000.0001) %MON ad_extforcing_adempmr_del2   =   9.0038969092014E+00
(PID.TID 0000.0001) %MON ad_extforcing_adfu_max       =   0.0000000000000E+00
(PID.TID 0000.0001) %MON ad_extforcing_adfu_min       =   0.0000000000000E+00
(PID.TID 0000.0001) %MON ad_extforcing_adfu_mean      =   0.0000000000000E+00
(PID.TID 0000.0001) %MON ad_extforcing_adfu_sd        =   0.0000000000000E+00
(PID.TID 0000.0001) %MON ad_extforcing_adfu_del2      =   0.0000000000000E+00
(PID.TID 0000.0001) %MON ad_extforcing_adfv_max       =   0.0000000000000E+00
(PID.TID 0000.0001) %MON ad_extforcing_adfv_min       =   0.0000000000000E+00
(PID.TID 0000.0001) %MON ad_extforcing_adfv_mean      =   0.0000000000000E+00
(PID.TID 0000.0001) %MON ad_extforcing_adfv_sd        =   0.0000000000000E+00
(PID.TID 0000.0001) %MON ad_extforcing_adfv_del2      =   0.0000000000000E+00
(PID.TID 0000.0001) %MON ad_advcfl_aduvel_max         =   1.0996602965186E-03
(PID.TID 0000.0001) %MON ad_advcfl_advvel_max         =   2.8834750800158E-03
(PID.TID 0000.0001) %MON ad_advcfl_adwvel_max         =   3.3030096055418E+02
(PID.TID 0000.0001) %MON ad_advcfl_adW_hf_max         =   4.6630723842944E+02
(PID.TID 0000.0001) // =======================================================
(PID.TID 0000.0001) // End MONITOR dynamic field statistics
(PID.TID 0000.0001) // =======================================================
 cg2d: Sum(rhs),rhsMax =   6.43774963893229E-12  3.01657591087437E-08
time,SST,SSS,fu,fv,Q,E-P,i0,i1,a,b =   2.5920E+05  2.3421E-01  3.4434E+01 -3.9527E-02 -6.2453E-02  2.6523E+02  0.0000E+00    12     1  6.0000E-01  4.0000E-01
time,fu0,fu1,fu =   2.5920E+05 -4.5368E-02 -3.5633E-02 -3.9527E-02  6.000000000000000E-01  4.000000000000000E-01
 cg2d: Sum(rhs),rhsMax =   7.20829645972643E-14  7.26221759046287E+00
time,SST,SSS,fu,fv,Q,E-P,i0,i1,a,b =   3.0240E+05  2.6438E-01  3.4446E+01 -3.9365E-02 -6.2237E-02  2.6525E+02  0.0000E+00    12     1  6.1667E-01  3.8333E-01
time,fu0,fu1,fu =   3.0240E+05 -4.5368E-02 -3.5633E-02 -3.9365E-02  6.166666666666667E-01  3.833333333333333E-01
 cg2d: Sum(rhs),rhsMax =  -1.70909835763011E-13  7.87499194900245E+00
time,SST,SSS,fu,fv,Q,E-P,i0,i1,a,b =   3.4560E+05  2.9456E-01  3.4457E+01 -3.9202E-02 -6.2020E-02  2.6528E+02  0.0000E+00    12     1  6.3333E-01  3.6667E-01
time,fu0,fu1,fu =   3.4560E+05 -4.5368E-02 -3.5633E-02 -3.9202E-02  6.333333333333333E-01  3.666666666666667E-01
 cg2d: Sum(rhs),rhsMax =   4.47654066593195E-14  8.21213972807562E+00
(PID.TID 0000.0001) // =======================================================
(PID.TID 0000.0001) // Begin MONITOR dynamic field statistics
(PID.TID 0000.0001) // =======================================================
(PID.TID 0000.0001) %MON ad_time_tsnumber             =                     9
(PID.TID 0000.0001) %MON ad_time_secondsf             =   3.8880000000000E+05
(PID.TID 0000.0001) %MON ad_dynstat_adeta_max         =   2.7458408683920E-03
(PID.TID 0000.0001) %MON ad_dynstat_adeta_min         =  -3.1158887020840E-03
(PID.TID 0000.0001) %MON ad_dynstat_adeta_mean        =   7.2598114684639E-06
(PID.TID 0000.0001) %MON ad_dynstat_adeta_sd          =   2.5631412701129E-04
(PID.TID 0000.0001) %MON ad_dynstat_adeta_del2        =   2.8358525035749E-05
(PID.TID 0000.0001) %MON ad_dynstat_aduvel_max        =   9.7726561951365E-03
(PID.TID 0000.0001) %MON ad_dynstat_aduvel_min        =  -5.6888733458046E-03
(PID.TID 0000.0001) %MON ad_dynstat_aduvel_mean       =   1.2751091797725E-04
(PID.TID 0000.0001) %MON ad_dynstat_aduvel_sd         =   6.5452179474764E-04
(PID.TID 0000.0001) %MON ad_dynstat_aduvel_del2       =   3.8961296952157E-05
(PID.TID 0000.0001) %MON ad_dynstat_advvel_max        =   2.8485575838213E-02
(PID.TID 0000.0001) %MON ad_dynstat_advvel_min        =  -2.2356134185180E-02
(PID.TID 0000.0001) %MON ad_dynstat_advvel_mean       =  -1.0165131227293E-04
(PID.TID 0000.0001) %MON ad_dynstat_advvel_sd         =   1.3505412712558E-03
(PID.TID 0000.0001) %MON ad_dynstat_advvel_del2       =   9.7370491930182E-05
(PID.TID 0000.0001) %MON ad_dynstat_adwvel_max        =   1.6049041057329E+00
(PID.TID 0000.0001) %MON ad_dynstat_adwvel_min        =  -9.1688114102931E-01
(PID.TID 0000.0001) %MON ad_dynstat_adwvel_mean       =   1.5890048225310E-04
(PID.TID 0000.0001) %MON ad_dynstat_adwvel_sd         =   2.6664221187160E-02
(PID.TID 0000.0001) %MON ad_dynstat_adwvel_del2       =   1.5835453375358E-03
(PID.TID 0000.0001) %MON ad_dynstat_adtheta_max       =   3.9547890992402E-03
(PID.TID 0000.0001) %MON ad_dynstat_adtheta_min       =  -3.8603519394742E-03
(PID.TID 0000.0001) %MON ad_dynstat_adtheta_mean      =   7.4061829361889E-07
(PID.TID 0000.0001) %MON ad_dynstat_adtheta_sd        =   1.6923554826964E-04
(PID.TID 0000.0001) %MON ad_dynstat_adtheta_del2      =   1.0751671739488E-05
(PID.TID 0000.0001) %MON ad_dynstat_adsalt_max        =   1.6157353752732E-02
(PID.TID 0000.0001) %MON ad_dynstat_adsalt_min        =  -1.7327834091324E-02
(PID.TID 0000.0001) %MON ad_dynstat_adsalt_mean       =  -4.1979699922612E-06
(PID.TID 0000.0001) %MON ad_dynstat_adsalt_sd         =   7.9053861551589E-04
(PID.TID 0000.0001) %MON ad_dynstat_adsalt_del2       =   4.9371861661234E-05
(PID.TID 0000.0001) %MON ad_dynstat_adsst_max         =   1.8780930452219E-04
(PID.TID 0000.0001) %MON ad_dynstat_adsst_min         =  -1.0048441051096E-04
(PID.TID 0000.0001) %MON ad_dynstat_adsst_mean        =  -2.1584818095469E-07
(PID.TID 0000.0001) %MON ad_dynstat_adsst_sd          =   7.4790809815258E-06
(PID.TID 0000.0001) %MON ad_dynstat_adsst_del2        =   7.1165046193993E-07
(PID.TID 0000.0001) %MON ad_dynstat_adsss_max         =   3.1973518140896E-04
(PID.TID 0000.0001) %MON ad_dynstat_adsss_min         =  -5.7858249461083E-04
(PID.TID 0000.0001) %MON ad_dynstat_adsss_mean        =   7.9636102312243E-08
(PID.TID 0000.0001) %MON ad_dynstat_adsss_sd          =   2.4987821892461E-05
(PID.TID 0000.0001) %MON ad_dynstat_adsss_del2        =   2.6418931242639E-06
(PID.TID 0000.0001) %MON ad_extforcing_adqnet_max     =   0.0000000000000E+00
(PID.TID 0000.0001) %MON ad_extforcing_adqnet_min     =   0.0000000000000E+00
(PID.TID 0000.0001) %MON ad_extforcing_adqnet_mean    =   0.0000000000000E+00
(PID.TID 0000.0001) %MON ad_extforcing_adqnet_sd      =   0.0000000000000E+00
(PID.TID 0000.0001) %MON ad_extforcing_adqnet_del2    =   0.0000000000000E+00
(PID.TID 0000.0001) %MON ad_extforcing_adempmr_max    =   1.8569195010109E+03
(PID.TID 0000.0001) %MON ad_extforcing_adempmr_min    =  -2.0077016718086E+03
(PID.TID 0000.0001) %MON ad_extforcing_adempmr_mean   =   1.1962828430278E-01
(PID.TID 0000.0001) %MON ad_extforcing_adempmr_sd     =   1.0206969512578E+02
(PID.TID 0000.0001) %MON ad_extforcing_adempmr_del2   =   9.0805281301773E+00
(PID.TID 0000.0001) %MON ad_extforcing_adfu_max       =   0.0000000000000E+00
(PID.TID 0000.0001) %MON ad_extforcing_adfu_min       =   0.0000000000000E+00
(PID.TID 0000.0001) %MON ad_extforcing_adfu_mean      =   0.0000000000000E+00
(PID.TID 0000.0001) %MON ad_extforcing_adfu_sd        =   0.0000000000000E+00
(PID.TID 0000.0001) %MON ad_extforcing_adfu_del2      =   0.0000000000000E+00
(PID.TID 0000.0001) %MON ad_extforcing_adfv_max       =   0.0000000000000E+00
(PID.TID 0000.0001) %MON ad_extforcing_adfv_min       =   0.0000000000000E+00
(PID.TID 0000.0001) %MON ad_extforcing_adfv_mean      =   0.0000000000000E+00
(PID.TID 0000.0001) %MON ad_extforcing_adfv_sd        =   0.0000000000000E+00
(PID.TID 0000.0001) %MON ad_extforcing_adfv_del2      =   0.0000000000000E+00
(PID.TID 0000.0001) %MON ad_advcfl_aduvel_max         =   1.0562321657398E-03
(PID.TID 0000.0001) %MON ad_advcfl_advvel_max         =   2.7671452658270E-03
(PID.TID 0000.0001) %MON ad_advcfl_adwvel_max         =   3.3541090633187E+02
(PID.TID 0000.0001) %MON ad_advcfl_adW_hf_max         =   4.7352127952735E+02
(PID.TID 0000.0001) // =======================================================
(PID.TID 0000.0001) // End MONITOR dynamic field statistics
(PID.TID 0000.0001) // =======================================================
 cg2d: Sum(rhs),rhsMax =   6.33412072792439E-12  3.04897598319556E-08
(PID.TID 0000.0001) // =======================================================
(PID.TID 0000.0001) // Begin MONITOR dynamic field statistics
(PID.TID 0000.0001) // =======================================================
(PID.TID 0000.0001) %MON ad_time_tsnumber             =                     8
(PID.TID 0000.0001) %MON ad_time_secondsf             =   3.4560000000000E+05
(PID.TID 0000.0001) %MON ad_dynstat_adeta_max         =   2.8771692344287E-03
(PID.TID 0000.0001) %MON ad_dynstat_adeta_min         =  -3.1472838118355E-03
(PID.TID 0000.0001) %MON ad_dynstat_adeta_mean        =   7.6152753697011E-06
(PID.TID 0000.0001) %MON ad_dynstat_adeta_sd          =   2.6203784414735E-04
(PID.TID 0000.0001) %MON ad_dynstat_adeta_del2        =   2.8995328758459E-05
(PID.TID 0000.0001) %MON ad_dynstat_aduvel_max        =   9.3363849408009E-03
(PID.TID 0000.0001) %MON ad_dynstat_aduvel_min        =  -5.6556212671404E-03
(PID.TID 0000.0001) %MON ad_dynstat_aduvel_mean       =   1.2296768957339E-04
(PID.TID 0000.0001) %MON ad_dynstat_aduvel_sd         =   6.5053386316034E-04
(PID.TID 0000.0001) %MON ad_dynstat_aduvel_del2       =   3.9160621857483E-05
(PID.TID 0000.0001) %MON ad_dynstat_advvel_max        =   2.7087234453832E-02
(PID.TID 0000.0001) %MON ad_dynstat_advvel_min        =  -2.2287214598049E-02
(PID.TID 0000.0001) %MON ad_dynstat_advvel_mean       =  -9.1691017357383E-05
(PID.TID 0000.0001) %MON ad_dynstat_advvel_sd         =   1.3106740856272E-03
(PID.TID 0000.0001) %MON ad_dynstat_advvel_del2       =   9.3688025287139E-05
(PID.TID 0000.0001) %MON ad_dynstat_adwvel_max        =   1.6289063764645E+00
(PID.TID 0000.0001) %MON ad_dynstat_adwvel_min        =  -9.2663821197599E-01
(PID.TID 0000.0001) %MON ad_dynstat_adwvel_mean       =   1.6013436568745E-04
(PID.TID 0000.0001) %MON ad_dynstat_adwvel_sd         =   2.7311062832421E-02
(PID.TID 0000.0001) %MON ad_dynstat_adwvel_del2       =   1.6307966567720E-03
(PID.TID 0000.0001) %MON ad_dynstat_adtheta_max       =   3.9928158824314E-03
(PID.TID 0000.0001) %MON ad_dynstat_adtheta_min       =  -3.9091683503323E-03
(PID.TID 0000.0001) %MON ad_dynstat_adtheta_mean      =   7.4328316422181E-07
(PID.TID 0000.0001) %MON ad_dynstat_adtheta_sd        =   1.7101775354642E-04
(PID.TID 0000.0001) %MON ad_dynstat_adtheta_del2      =   1.0878714165007E-05
(PID.TID 0000.0001) %MON ad_dynstat_adsalt_max        =   1.6102915272872E-02
(PID.TID 0000.0001) %MON ad_dynstat_adsalt_min        =  -1.7415820521374E-02
(PID.TID 0000.0001) %MON ad_dynstat_adsalt_mean       =  -4.2925766390940E-06
(PID.TID 0000.0001) %MON ad_dynstat_adsalt_sd         =   7.9810109948212E-04
(PID.TID 0000.0001) %MON ad_dynstat_adsalt_del2       =   4.9823599491031E-05
(PID.TID 0000.0001) %MON ad_dynstat_adsst_max         =   1.8581120600311E-04
(PID.TID 0000.0001) %MON ad_dynstat_adsst_min         =  -9.7308886025426E-05
(PID.TID 0000.0001) %MON ad_dynstat_adsst_mean        =  -2.3139702189697E-07
(PID.TID 0000.0001) %MON ad_dynstat_adsst_sd          =   7.4887225492061E-06
(PID.TID 0000.0001) %MON ad_dynstat_adsst_del2        =   7.1888803696104E-07
(PID.TID 0000.0001) %MON ad_dynstat_adsss_max         =   3.1074337407192E-04
(PID.TID 0000.0001) %MON ad_dynstat_adsss_min         =  -5.7569382779990E-04
(PID.TID 0000.0001) %MON ad_dynstat_adsss_mean        =   1.1776251247914E-07
(PID.TID 0000.0001) %MON ad_dynstat_adsss_sd          =   2.5070902526858E-05
(PID.TID 0000.0001) %MON ad_dynstat_adsss_del2        =   2.6648522735084E-06
(PID.TID 0000.0001) %MON ad_extforcing_adqnet_max     =   0.0000000000000E+00
(PID.TID 0000.0001) %MON ad_extforcing_adqnet_min     =   0.0000000000000E+00
(PID.TID 0000.0001) %MON ad_extforcing_adqnet_mean    =   0.0000000000000E+00
(PID.TID 0000.0001) %MON ad_extforcing_adqnet_sd      =   0.0000000000000E+00
(PID.TID 0000.0001) %MON ad_extforcing_adqnet_del2    =   0.0000000000000E+00
(PID.TID 0000.0001) %MON ad_extforcing_adempmr_max    =   1.8711063967459E+03
(PID.TID 0000.0001) %MON ad_extforcing_adempmr_min    =  -2.0245189805350E+03
(PID.TID 0000.0001) %MON ad_extforcing_adempmr_mean   =   1.1431618184230E-01
(PID.TID 0000.0001) %MON ad_extforcing_adempmr_sd     =   1.0289755867510E+02
(PID.TID 0000.0001) %MON ad_extforcing_adempmr_del2   =   9.1586660776477E+00
(PID.TID 0000.0001) %MON ad_extforcing_adfu_max       =   0.0000000000000E+00
(PID.TID 0000.0001) %MON ad_extforcing_adfu_min       =   0.0000000000000E+00
(PID.TID 0000.0001) %MON ad_extforcing_adfu_mean      =   0.0000000000000E+00
(PID.TID 0000.0001) %MON ad_extforcing_adfu_sd        =   0.0000000000000E+00
(PID.TID 0000.0001) %MON ad_extforcing_adfu_del2      =   0.0000000000000E+00
(PID.TID 0000.0001) %MON ad_extforcing_adfv_max       =   0.0000000000000E+00
(PID.TID 0000.0001) %MON ad_extforcing_adfv_min       =   0.0000000000000E+00
(PID.TID 0000.0001) %MON ad_extforcing_adfv_mean      =   0.0000000000000E+00
(PID.TID 0000.0001) %MON ad_extforcing_adfv_sd        =   0.0000000000000E+00
(PID.TID 0000.0001) %MON ad_extforcing_adfv_del2      =   0.0000000000000E+00
(PID.TID 0000.0001) %MON ad_advcfl_aduvel_max         =   1.0090798130308E-03
(PID.TID 0000.0001) %MON ad_advcfl_advvel_max         =   2.6313076136842E-03
(PID.TID 0000.0001) %MON ad_advcfl_adwvel_max         =   3.4051930539519E+02
(PID.TID 0000.0001) %MON ad_advcfl_adW_hf_max         =   4.8073313702851E+02
(PID.TID 0000.0001) // =======================================================
(PID.TID 0000.0001) // End MONITOR dynamic field statistics
(PID.TID 0000.0001) // =======================================================
 cg2d: Sum(rhs),rhsMax =   6.25040644242070E-12  3.08106246437886E-08
(PID.TID 0000.0001) // =======================================================
(PID.TID 0000.0001) // Begin MONITOR dynamic field statistics
(PID.TID 0000.0001) // =======================================================
(PID.TID 0000.0001) %MON ad_time_tsnumber             =                     7
(PID.TID 0000.0001) %MON ad_time_secondsf             =   3.0240000000000E+05
(PID.TID 0000.0001) %MON ad_dynstat_adeta_max         =   3.0090849670935E-03
(PID.TID 0000.0001) %MON ad_dynstat_adeta_min         =  -3.1760273935556E-03
(PID.TID 0000.0001) %MON ad_dynstat_adeta_mean        =   7.9411146672545E-06
(PID.TID 0000.0001) %MON ad_dynstat_adeta_sd          =   2.6757757972530E-04
(PID.TID 0000.0001) %MON ad_dynstat_adeta_del2        =   2.9605375722438E-05
(PID.TID 0000.0001) %MON ad_dynstat_aduvel_max        =   8.8685659004158E-03
(PID.TID 0000.0001) %MON ad_dynstat_aduvel_min        =  -5.7638645713706E-03
(PID.TID 0000.0001) %MON ad_dynstat_aduvel_mean       =   1.1766688674108E-04
(PID.TID 0000.0001) %MON ad_dynstat_aduvel_sd         =   6.4690635966044E-04
(PID.TID 0000.0001) %MON ad_dynstat_aduvel_del2       =   3.9499515713849E-05
(PID.TID 0000.0001) %MON ad_dynstat_advvel_max        =   2.5502280004664E-02
(PID.TID 0000.0001) %MON ad_dynstat_advvel_min        =  -2.2094340138405E-02
(PID.TID 0000.0001) %MON ad_dynstat_advvel_mean       =  -8.1216070566682E-05
(PID.TID 0000.0001) %MON ad_dynstat_advvel_sd         =   1.2670002125608E-03
(PID.TID 0000.0001) %MON ad_dynstat_advvel_del2       =   8.9903199134165E-05
(PID.TID 0000.0001) %MON ad_dynstat_adwvel_max        =   1.6530712775961E+00
(PID.TID 0000.0001) %MON ad_dynstat_adwvel_min        =  -9.3599442990272E-01
(PID.TID 0000.0001) %MON ad_dynstat_adwvel_mean       =   1.6162911093196E-04
(PID.TID 0000.0001) %MON ad_dynstat_adwvel_sd         =   2.7916826533846E-02
(PID.TID 0000.0001) %MON ad_dynstat_adwvel_del2       =   1.6705682550734E-03
(PID.TID 0000.0001) %MON ad_dynstat_adtheta_max       =   4.0283292682732E-03
(PID.TID 0000.0001) %MON ad_dynstat_adtheta_min       =  -3.9574979057547E-03
(PID.TID 0000.0001) %MON ad_dynstat_adtheta_mean      =   7.4490946076909E-07
(PID.TID 0000.0001) %MON ad_dynstat_adtheta_sd        =   1.7259977217195E-04
(PID.TID 0000.0001) %MON ad_dynstat_adtheta_del2      =   1.0973038426505E-05
(PID.TID 0000.0001) %MON ad_dynstat_adsalt_max        =   1.6052531695564E-02
(PID.TID 0000.0001) %MON ad_dynstat_adsalt_min        =  -1.7487769268864E-02
(PID.TID 0000.0001) %MON ad_dynstat_adsalt_mean       =  -4.3815068992632E-06
(PID.TID 0000.0001) %MON ad_dynstat_adsalt_sd         =   8.0472843080787E-04
(PID.TID 0000.0001) %MON ad_dynstat_adsalt_del2       =   5.0132935898640E-05
(PID.TID 0000.0001) %MON ad_dynstat_adsst_max         =   1.8397680984093E-04
(PID.TID 0000.0001) %MON ad_dynstat_adsst_min         =  -9.6344096366689E-05
(PID.TID 0000.0001) %MON ad_dynstat_adsst_mean        =  -2.4431576643046E-07
(PID.TID 0000.0001) %MON ad_dynstat_adsst_sd          =   7.4945248139111E-06
(PID.TID 0000.0001) %MON ad_dynstat_adsst_del2        =   7.2425905044027E-07
(PID.TID 0000.0001) %MON ad_dynstat_adsss_max         =   3.0127710717366E-04
(PID.TID 0000.0001) %MON ad_dynstat_adsss_min         =  -5.7324678287180E-04
(PID.TID 0000.0001) %MON ad_dynstat_adsss_mean        =   1.5105676188122E-07
(PID.TID 0000.0001) %MON ad_dynstat_adsss_sd          =   2.5146292815460E-05
(PID.TID 0000.0001) %MON ad_dynstat_adsss_del2        =   2.6847782413816E-06
(PID.TID 0000.0001) %MON ad_extforcing_adqnet_max     =   0.0000000000000E+00
(PID.TID 0000.0001) %MON ad_extforcing_adqnet_min     =   0.0000000000000E+00
(PID.TID 0000.0001) %MON ad_extforcing_adqnet_mean    =   0.0000000000000E+00
(PID.TID 0000.0001) %MON ad_extforcing_adqnet_sd      =   0.0000000000000E+00
(PID.TID 0000.0001) %MON ad_extforcing_adqnet_del2    =   0.0000000000000E+00
(PID.TID 0000.0001) %MON ad_extforcing_adempmr_max    =   1.8849665682913E+03
(PID.TID 0000.0001) %MON ad_extforcing_adempmr_min    =  -2.0415878505346E+03
(PID.TID 0000.0001) %MON ad_extforcing_adempmr_mean   =   1.0987066259020E-01
(PID.TID 0000.0001) %MON ad_extforcing_adempmr_sd     =   1.0373607124207E+02
(PID.TID 0000.0001) %MON ad_extforcing_adempmr_del2   =   9.2379169267822E+00
(PID.TID 0000.0001) %MON ad_extforcing_adfu_max       =   0.0000000000000E+00
(PID.TID 0000.0001) %MON ad_extforcing_adfu_min       =   0.0000000000000E+00
(PID.TID 0000.0001) %MON ad_extforcing_adfu_mean      =   0.0000000000000E+00
(PID.TID 0000.0001) %MON ad_extforcing_adfu_sd        =   0.0000000000000E+00
(PID.TID 0000.0001) %MON ad_extforcing_adfu_del2      =   0.0000000000000E+00
(PID.TID 0000.0001) %MON ad_extforcing_adfv_max       =   0.0000000000000E+00
(PID.TID 0000.0001) %MON ad_extforcing_adfv_min       =   0.0000000000000E+00
(PID.TID 0000.0001) %MON ad_extforcing_adfv_mean      =   0.0000000000000E+00
(PID.TID 0000.0001) %MON ad_extforcing_adfv_sd        =   0.0000000000000E+00
(PID.TID 0000.0001) %MON ad_extforcing_adfv_del2      =   0.0000000000000E+00
(PID.TID 0000.0001) %MON ad_advcfl_aduvel_max         =   9.5851776435807E-04
(PID.TID 0000.0001) %MON ad_advcfl_advvel_max         =   2.4773419987541E-03
(PID.TID 0000.0001) %MON ad_advcfl_adwvel_max         =   3.4553724515136E+02
(PID.TID 0000.0001) %MON ad_advcfl_adW_hf_max         =   4.8781728727251E+02
(PID.TID 0000.0001) // =======================================================
(PID.TID 0000.0001) // End MONITOR dynamic field statistics
(PID.TID 0000.0001) // =======================================================
 cg2d: Sum(rhs),rhsMax =   6.12604411642792E-12  3.11257035955962E-08
time,SST,SSS,fu,fv,Q,E-P,i0,i1,a,b =   1.2960E+05  1.4368E-01  3.4399E+01 -4.0014E-02 -6.3103E-02  2.6516E+02  0.0000E+00    12     1  5.5000E-01  4.5000E-01
time,fu0,fu1,fu =   1.2960E+05 -4.5368E-02 -3.5633E-02 -4.0014E-02  5.500000000000000E-01  4.500000000000000E-01
 cg2d: Sum(rhs),rhsMax =   5.70515856779252E-14  6.76202107413721E+00
time,SST,SSS,fu,fv,Q,E-P,i0,i1,a,b =   1.7280E+05  1.7385E-01  3.4410E+01 -3.9851E-02 -6.2886E-02  2.6519E+02  0.0000E+00    12     1  5.6667E-01  4.3333E-01
time,fu0,fu1,fu =   1.7280E+05 -4.5368E-02 -3.5633E-02 -3.9851E-02  5.666666666666667E-01  4.333333333333333E-01
 cg2d: Sum(rhs),rhsMax =  -3.60458191073221E-14  6.91128535917370E+00
time,SST,SSS,fu,fv,Q,E-P,i0,i1,a,b =   2.1600E+05  2.0403E-01  3.4422E+01 -3.9689E-02 -6.2670E-02  2.6521E+02  0.0000E+00    12     1  5.8333E-01  4.1667E-01
time,fu0,fu1,fu =   2.1600E+05 -4.5368E-02 -3.5633E-02 -3.9689E-02  5.833333333333334E-01  4.166666666666666E-01
 cg2d: Sum(rhs),rhsMax =   1.28797146559112E-13  6.96038704691245E+00
(PID.TID 0000.0001) // =======================================================
(PID.TID 0000.0001) // Begin MONITOR dynamic field statistics
(PID.TID 0000.0001) // =======================================================
(PID.TID 0000.0001) %MON ad_time_tsnumber             =                     6
(PID.TID 0000.0001) %MON ad_time_secondsf             =   2.5920000000000E+05
(PID.TID 0000.0001) %MON ad_dynstat_adeta_max         =   3.1408889800349E-03
(PID.TID 0000.0001) %MON ad_dynstat_adeta_min         =  -3.2019917939852E-03
(PID.TID 0000.0001) %MON ad_dynstat_adeta_mean        =   8.2359150194629E-06
(PID.TID 0000.0001) %MON ad_dynstat_adeta_sd          =   2.7280656858671E-04
(PID.TID 0000.0001) %MON ad_dynstat_adeta_del2        =   3.0200089308417E-05
(PID.TID 0000.0001) %MON ad_dynstat_aduvel_max        =   8.3723599114329E-03
(PID.TID 0000.0001) %MON ad_dynstat_aduvel_min        =  -5.8588970233251E-03
(PID.TID 0000.0001) %MON ad_dynstat_aduvel_mean       =   1.1163541341475E-04
(PID.TID 0000.0001) %MON ad_dynstat_aduvel_sd         =   6.4367375190867E-04
(PID.TID 0000.0001) %MON ad_dynstat_aduvel_del2       =   3.9933231928674E-05
(PID.TID 0000.0001) %MON ad_dynstat_advvel_max        =   2.3746088228303E-02
(PID.TID 0000.0001) %MON ad_dynstat_advvel_min        =  -2.1775721236430E-02
(PID.TID 0000.0001) %MON ad_dynstat_advvel_mean       =  -7.0315153571886E-05
(PID.TID 0000.0001) %MON ad_dynstat_advvel_sd         =   1.2205521838274E-03
(PID.TID 0000.0001) %MON ad_dynstat_advvel_del2       =   8.6166946047642E-05
(PID.TID 0000.0001) %MON ad_dynstat_adwvel_max        =   1.6768771670859E+00
(PID.TID 0000.0001) %MON ad_dynstat_adwvel_min        =  -9.4488655728888E-01
(PID.TID 0000.0001) %MON ad_dynstat_adwvel_mean       =   1.6339052762281E-04
(PID.TID 0000.0001) %MON ad_dynstat_adwvel_sd         =   2.8469350268267E-02
(PID.TID 0000.0001) %MON ad_dynstat_adwvel_del2       =   1.7044196094223E-03
(PID.TID 0000.0001) %MON ad_dynstat_adtheta_max       =   4.0608730233035E-03
(PID.TID 0000.0001) %MON ad_dynstat_adtheta_min       =  -4.0043992657413E-03
(PID.TID 0000.0001) %MON ad_dynstat_adtheta_mean      =   7.4522378434825E-07
(PID.TID 0000.0001) %MON ad_dynstat_adtheta_sd        =   1.7395423184137E-04
(PID.TID 0000.0001) %MON ad_dynstat_adtheta_del2      =   1.1046208115621E-05
(PID.TID 0000.0001) %MON ad_dynstat_adsalt_max        =   1.6007721014123E-02
(PID.TID 0000.0001) %MON ad_dynstat_adsalt_min        =  -1.7542044869538E-02
(PID.TID 0000.0001) %MON ad_dynstat_adsalt_mean       =  -4.4631899070637E-06
(PID.TID 0000.0001) %MON ad_dynstat_adsalt_sd         =   8.1031299472132E-04
(PID.TID 0000.0001) %MON ad_dynstat_adsalt_del2       =   5.0366613730833E-05
(PID.TID 0000.0001) %MON ad_dynstat_adsst_max         =   1.8223088364446E-04
(PID.TID 0000.0001) %MON ad_dynstat_adsst_min         =  -9.8096980646387E-05
(PID.TID 0000.0001) %MON ad_dynstat_adsst_mean        =  -2.5550655367951E-07
(PID.TID 0000.0001) %MON ad_dynstat_adsst_sd          =   7.4947361475662E-06
(PID.TID 0000.0001) %MON ad_dynstat_adsst_del2        =   7.2855712860440E-07
(PID.TID 0000.0001) %MON ad_dynstat_adsss_max         =   3.0012264668199E-04
(PID.TID 0000.0001) %MON ad_dynstat_adsss_min         =  -5.7099109651841E-04
(PID.TID 0000.0001) %MON ad_dynstat_adsss_mean        =   1.8133340019034E-07
(PID.TID 0000.0001) %MON ad_dynstat_adsss_sd          =   2.5203891099102E-05
(PID.TID 0000.0001) %MON ad_dynstat_adsss_del2        =   2.7007765422193E-06
(PID.TID 0000.0001) %MON ad_extforcing_adqnet_max     =   0.0000000000000E+00
(PID.TID 0000.0001) %MON ad_extforcing_adqnet_min     =   0.0000000000000E+00
(PID.TID 0000.0001) %MON ad_extforcing_adqnet_mean    =   0.0000000000000E+00
(PID.TID 0000.0001) %MON ad_extforcing_adqnet_sd      =   0.0000000000000E+00
(PID.TID 0000.0001) %MON ad_extforcing_adqnet_del2    =   0.0000000000000E+00
(PID.TID 0000.0001) %MON ad_extforcing_adempmr_max    =   1.8985410778055E+03
(PID.TID 0000.0001) %MON ad_extforcing_adempmr_min    =  -2.0588573192158E+03
(PID.TID 0000.0001) %MON ad_extforcing_adempmr_mean   =   1.0621376212832E-01
(PID.TID 0000.0001) %MON ad_extforcing_adempmr_sd     =   1.0458325294773E+02
(PID.TID 0000.0001) %MON ad_extforcing_adempmr_del2   =   9.3179947459591E+00
(PID.TID 0000.0001) %MON ad_extforcing_adfu_max       =   0.0000000000000E+00
(PID.TID 0000.0001) %MON ad_extforcing_adfu_min       =   0.0000000000000E+00
(PID.TID 0000.0001) %MON ad_extforcing_adfu_mean      =   0.0000000000000E+00
(PID.TID 0000.0001) %MON ad_extforcing_adfu_sd        =   0.0000000000000E+00
(PID.TID 0000.0001) %MON ad_extforcing_adfu_del2      =   0.0000000000000E+00
(PID.TID 0000.0001) %MON ad_extforcing_adfv_max       =   0.0000000000000E+00
(PID.TID 0000.0001) %MON ad_extforcing_adfv_min       =   0.0000000000000E+00
(PID.TID 0000.0001) %MON ad_extforcing_adfv_mean      =   0.0000000000000E+00
(PID.TID 0000.0001) %MON ad_extforcing_adfv_sd        =   0.0000000000000E+00
(PID.TID 0000.0001) %MON ad_extforcing_adfv_del2      =   0.0000000000000E+00
(PID.TID 0000.0001) %MON ad_advcfl_aduvel_max         =   9.0488764416031E-04
(PID.TID 0000.0001) %MON ad_advcfl_advvel_max         =   2.3067420506456E-03
(PID.TID 0000.0001) %MON ad_advcfl_adwvel_max         =   3.5043994579653E+02
(PID.TID 0000.0001) %MON ad_advcfl_adW_hf_max         =   4.9473874700687E+02
(PID.TID 0000.0001) // =======================================================
(PID.TID 0000.0001) // End MONITOR dynamic field statistics
(PID.TID 0000.0001) // =======================================================
 cg2d: Sum(rhs),rhsMax =   5.98054591960384E-12  3.14310021475461E-08
(PID.TID 0000.0001) // =======================================================
(PID.TID 0000.0001) // Begin MONITOR dynamic field statistics
(PID.TID 0000.0001) // =======================================================
(PID.TID 0000.0001) %MON ad_time_tsnumber             =                     5
(PID.TID 0000.0001) %MON ad_time_secondsf             =   2.1600000000000E+05
(PID.TID 0000.0001) %MON ad_dynstat_adeta_max         =   3.2716808016719E-03
(PID.TID 0000.0001) %MON ad_dynstat_adeta_min         =  -3.2247321380289E-03
(PID.TID 0000.0001) %MON ad_dynstat_adeta_mean        =   8.4987268347083E-06
(PID.TID 0000.0001) %MON ad_dynstat_adeta_sd          =   2.7762308983403E-04
(PID.TID 0000.0001) %MON ad_dynstat_adeta_del2        =   3.0686182250477E-05
(PID.TID 0000.0001) %MON ad_dynstat_aduvel_max        =   7.8510538083007E-03
(PID.TID 0000.0001) %MON ad_dynstat_aduvel_min        =  -5.9402113268677E-03
(PID.TID 0000.0001) %MON ad_dynstat_aduvel_mean       =   1.0490969610994E-04
(PID.TID 0000.0001) %MON ad_dynstat_aduvel_sd         =   6.4084059756342E-04
(PID.TID 0000.0001) %MON ad_dynstat_aduvel_del2       =   4.0488962176960E-05
(PID.TID 0000.0001) %MON ad_dynstat_advvel_max        =   2.1835217469115E-02
(PID.TID 0000.0001) %MON ad_dynstat_advvel_min        =  -2.1329901992754E-02
(PID.TID 0000.0001) %MON ad_dynstat_advvel_mean       =  -5.9076232610306E-05
(PID.TID 0000.0001) %MON ad_dynstat_advvel_sd         =   1.1724388549547E-03
(PID.TID 0000.0001) %MON ad_dynstat_advvel_del2       =   8.2678236177563E-05
(PID.TID 0000.0001) %MON ad_dynstat_adwvel_max        =   1.6997135175908E+00
(PID.TID 0000.0001) %MON ad_dynstat_adwvel_min        =  -9.5312533938579E-01
(PID.TID 0000.0001) %MON ad_dynstat_adwvel_mean       =   1.6551769283729E-04
(PID.TID 0000.0001) %MON ad_dynstat_adwvel_sd         =   2.8957934305366E-02
(PID.TID 0000.0001) %MON ad_dynstat_adwvel_del2       =   1.7305116649697E-03
(PID.TID 0000.0001) %MON ad_dynstat_adtheta_max       =   4.0898514603125E-03
(PID.TID 0000.0001) %MON ad_dynstat_adtheta_min       =  -4.0489486323311E-03
(PID.TID 0000.0001) %MON ad_dynstat_adtheta_mean      =   7.4395585439321E-07
(PID.TID 0000.0001) %MON ad_dynstat_adtheta_sd        =   1.7506156930992E-04
(PID.TID 0000.0001) %MON ad_dynstat_adtheta_del2      =   1.1095400632772E-05
(PID.TID 0000.0001) %MON ad_dynstat_adsalt_max        =   1.5969932912875E-02
(PID.TID 0000.0001) %MON ad_dynstat_adsalt_min        =  -1.7632115355721E-02
(PID.TID 0000.0001) %MON ad_dynstat_adsalt_mean       =  -4.5362279612118E-06
(PID.TID 0000.0001) %MON ad_dynstat_adsalt_sd         =   8.1478468814198E-04
(PID.TID 0000.0001) %MON ad_dynstat_adsalt_del2       =   5.0511720922624E-05
(PID.TID 0000.0001) %MON ad_dynstat_adsst_max         =   1.8053722552926E-04
(PID.TID 0000.0001) %MON ad_dynstat_adsst_min         =  -1.0041567944257E-04
(PID.TID 0000.0001) %MON ad_dynstat_adsst_mean        =  -2.6402839506086E-07
(PID.TID 0000.0001) %MON ad_dynstat_adsst_sd          =   7.5014573008272E-06
(PID.TID 0000.0001) %MON ad_dynstat_adsst_del2        =   7.3396763210083E-07
(PID.TID 0000.0001) %MON ad_dynstat_adsss_max         =   3.0752412808772E-04
(PID.TID 0000.0001) %MON ad_dynstat_adsss_min         =  -5.6883893466987E-04
(PID.TID 0000.0001) %MON ad_dynstat_adsss_mean        =   2.0359427422299E-07
(PID.TID 0000.0001) %MON ad_dynstat_adsss_sd          =   2.5298092312457E-05
(PID.TID 0000.0001) %MON ad_dynstat_adsss_del2        =   2.7194889742221E-06
(PID.TID 0000.0001) %MON ad_extforcing_adqnet_max     =   0.0000000000000E+00
(PID.TID 0000.0001) %MON ad_extforcing_adqnet_min     =   0.0000000000000E+00
(PID.TID 0000.0001) %MON ad_extforcing_adqnet_mean    =   0.0000000000000E+00
(PID.TID 0000.0001) %MON ad_extforcing_adqnet_sd      =   0.0000000000000E+00
(PID.TID 0000.0001) %MON ad_extforcing_adqnet_del2    =   0.0000000000000E+00
(PID.TID 0000.0001) %MON ad_extforcing_adempmr_max    =   1.9118746638286E+03
(PID.TID 0000.0001) %MON ad_extforcing_adempmr_min    =  -2.0762962349986E+03
(PID.TID 0000.0001) %MON ad_extforcing_adempmr_mean   =   1.0293321764468E-01
(PID.TID 0000.0001) %MON ad_extforcing_adempmr_sd     =   1.0543822190229E+02
(PID.TID 0000.0001) %MON ad_extforcing_adempmr_del2   =   9.3992077117825E+00
(PID.TID 0000.0001) %MON ad_extforcing_adfu_max       =   0.0000000000000E+00
(PID.TID 0000.0001) %MON ad_extforcing_adfu_min       =   0.0000000000000E+00
(PID.TID 0000.0001) %MON ad_extforcing_adfu_mean      =   0.0000000000000E+00
(PID.TID 0000.0001) %MON ad_extforcing_adfu_sd        =   0.0000000000000E+00
(PID.TID 0000.0001) %MON ad_extforcing_adfu_del2      =   0.0000000000000E+00
(PID.TID 0000.0001) %MON ad_extforcing_adfv_max       =   0.0000000000000E+00
(PID.TID 0000.0001) %MON ad_extforcing_adfv_min       =   0.0000000000000E+00
(PID.TID 0000.0001) %MON ad_extforcing_adfv_mean      =   0.0000000000000E+00
(PID.TID 0000.0001) %MON ad_extforcing_adfv_sd        =   0.0000000000000E+00
(PID.TID 0000.0001) %MON ad_extforcing_adfv_del2      =   0.0000000000000E+00
(PID.TID 0000.0001) %MON ad_advcfl_aduvel_max         =   8.4854469467656E-04
(PID.TID 0000.0001) %MON ad_advcfl_advvel_max         =   2.1211162797317E-03
(PID.TID 0000.0001) %MON ad_advcfl_adwvel_max         =   3.5516454285749E+02
(PID.TID 0000.0001) %MON ad_advcfl_adW_hf_max         =   5.0140876638704E+02
(PID.TID 0000.0001) // =======================================================
(PID.TID 0000.0001) // End MONITOR dynamic field statistics
(PID.TID 0000.0001) // =======================================================
 cg2d: Sum(rhs),rhsMax =   5.81913683905810E-12  3.17210840349101E-08
(PID.TID 0000.0001) // =======================================================
(PID.TID 0000.0001) // Begin MONITOR dynamic field statistics
(PID.TID 0000.0001) // =======================================================
(PID.TID 0000.0001) %MON ad_time_tsnumber             =                     4
(PID.TID 0000.0001) %MON ad_time_secondsf             =   1.7280000000000E+05
(PID.TID 0000.0001) %MON ad_dynstat_adeta_max         =   3.4003869386249E-03
(PID.TID 0000.0001) %MON ad_dynstat_adeta_min         =  -3.2437021773110E-03
(PID.TID 0000.0001) %MON ad_dynstat_adeta_mean        =   8.7290696899531E-06
(PID.TID 0000.0001) %MON ad_dynstat_adeta_sd          =   2.8195123253929E-04
(PID.TID 0000.0001) %MON ad_dynstat_adeta_del2        =   3.1067062619299E-05
(PID.TID 0000.0001) %MON ad_dynstat_aduvel_max        =   7.3077980794725E-03
(PID.TID 0000.0001) %MON ad_dynstat_aduvel_min        =  -6.0072648023769E-03
(PID.TID 0000.0001) %MON ad_dynstat_aduvel_mean       =   9.7534186245803E-05
(PID.TID 0000.0001) %MON ad_dynstat_aduvel_sd         =   6.3838828444348E-04
(PID.TID 0000.0001) %MON ad_dynstat_aduvel_del2       =   4.1072896492772E-05
(PID.TID 0000.0001) %MON ad_dynstat_advvel_max        =   1.9787342736626E-02
(PID.TID 0000.0001) %MON ad_dynstat_advvel_min        =  -2.0756082161715E-02
(PID.TID 0000.0001) %MON ad_dynstat_advvel_mean       =  -4.7583994153969E-05
(PID.TID 0000.0001) %MON ad_dynstat_advvel_sd         =   1.1238309111300E-03
(PID.TID 0000.0001) %MON ad_dynstat_advvel_del2       =   7.9579262408163E-05
(PID.TID 0000.0001) %MON ad_dynstat_adwvel_max        =   1.7210287469718E+00
(PID.TID 0000.0001) %MON ad_dynstat_adwvel_min        =  -9.6041434242730E-01
(PID.TID 0000.0001) %MON ad_dynstat_adwvel_mean       =   1.6804186723415E-04
(PID.TID 0000.0001) %MON ad_dynstat_adwvel_sd         =   2.9373234086278E-02
(PID.TID 0000.0001) %MON ad_dynstat_adwvel_del2       =   1.7499415457516E-03
(PID.TID 0000.0001) %MON ad_dynstat_adtheta_max       =   4.1146340078436E-03
(PID.TID 0000.0001) %MON ad_dynstat_adtheta_min       =  -4.0903225162643E-03
(PID.TID 0000.0001) %MON ad_dynstat_adtheta_mean      =   7.4090829581340E-07
(PID.TID 0000.0001) %MON ad_dynstat_adtheta_sd        =   1.7591074645500E-04
(PID.TID 0000.0001) %MON ad_dynstat_adtheta_del2      =   1.1117489213341E-05
(PID.TID 0000.0001) %MON ad_dynstat_adsalt_max        =   1.5939955072077E-02
(PID.TID 0000.0001) %MON ad_dynstat_adsalt_min        =  -1.7743429223769E-02
(PID.TID 0000.0001) %MON ad_dynstat_adsalt_mean       =  -4.5996875703596E-06
(PID.TID 0000.0001) %MON ad_dynstat_adsalt_sd         =   8.1811295418716E-04
(PID.TID 0000.0001) %MON ad_dynstat_adsalt_del2       =   5.0567079568906E-05
(PID.TID 0000.0001) %MON ad_dynstat_adsst_max         =   1.7887207464943E-04
(PID.TID 0000.0001) %MON ad_dynstat_adsst_min         =  -1.0193541566103E-04
(PID.TID 0000.0001) %MON ad_dynstat_adsst_mean        =  -2.7183684480354E-07
(PID.TID 0000.0001) %MON ad_dynstat_adsst_sd          =   7.4959047438558E-06
(PID.TID 0000.0001) %MON ad_dynstat_adsst_del2        =   7.3775628084537E-07
(PID.TID 0000.0001) %MON ad_dynstat_adsss_max         =   3.1266288364722E-04
(PID.TID 0000.0001) %MON ad_dynstat_adsss_min         =  -5.6673477053440E-04
(PID.TID 0000.0001) %MON ad_dynstat_adsss_mean        =   2.2132431884361E-07
(PID.TID 0000.0001) %MON ad_dynstat_adsss_sd          =   2.5374321296656E-05
(PID.TID 0000.0001) %MON ad_dynstat_adsss_del2        =   2.7360355734723E-06
(PID.TID 0000.0001) %MON ad_extforcing_adqnet_max     =   0.0000000000000E+00
(PID.TID 0000.0001) %MON ad_extforcing_adqnet_min     =   0.0000000000000E+00
(PID.TID 0000.0001) %MON ad_extforcing_adqnet_mean    =   0.0000000000000E+00
(PID.TID 0000.0001) %MON ad_extforcing_adqnet_sd      =   0.0000000000000E+00
(PID.TID 0000.0001) %MON ad_extforcing_adqnet_del2    =   0.0000000000000E+00
(PID.TID 0000.0001) %MON ad_extforcing_adempmr_max    =   1.9250359570513E+03
(PID.TID 0000.0001) %MON ad_extforcing_adempmr_min    =  -2.0939203718643E+03
(PID.TID 0000.0001) %MON ad_extforcing_adempmr_mean   =   1.0029100334950E-01
(PID.TID 0000.0001) %MON ad_extforcing_adempmr_sd     =   1.0629818550383E+02
(PID.TID 0000.0001) %MON ad_extforcing_adempmr_del2   =   9.4808773257097E+00
(PID.TID 0000.0001) %MON ad_extforcing_adfu_max       =   0.0000000000000E+00
(PID.TID 0000.0001) %MON ad_extforcing_adfu_min       =   0.0000000000000E+00
(PID.TID 0000.0001) %MON ad_extforcing_adfu_mean      =   0.0000000000000E+00
(PID.TID 0000.0001) %MON ad_extforcing_adfu_sd        =   0.0000000000000E+00
(PID.TID 0000.0001) %MON ad_extforcing_adfu_del2      =   0.0000000000000E+00
(PID.TID 0000.0001) %MON ad_extforcing_adfv_max       =   0.0000000000000E+00
(PID.TID 0000.0001) %MON ad_extforcing_adfv_min       =   0.0000000000000E+00
(PID.TID 0000.0001) %MON ad_extforcing_adfv_mean      =   0.0000000000000E+00
(PID.TID 0000.0001) %MON ad_extforcing_adfv_sd        =   0.0000000000000E+00
(PID.TID 0000.0001) %MON ad_extforcing_adfv_del2      =   0.0000000000000E+00
(PID.TID 0000.0001) %MON ad_advcfl_aduvel_max         =   7.8982942182205E-04
(PID.TID 0000.0001) %MON ad_advcfl_advvel_max         =   2.0162869382425E-03
(PID.TID 0000.0001) %MON ad_advcfl_adwvel_max         =   3.5966875805830E+02
(PID.TID 0000.0001) %MON ad_advcfl_adW_hf_max         =   5.0776765843525E+02
(PID.TID 0000.0001) // =======================================================
(PID.TID 0000.0001) // End MONITOR dynamic field statistics
(PID.TID 0000.0001) // =======================================================
 cg2d: Sum(rhs),rhsMax =   5.60393398352232E-12  3.19895165463285E-08
S/R EXTERNAL_FIELDS_LOAD: Reading new data:   12    1         0  0.000000000000E+00
(PID.TID 0000.0001)  MDSREADFIELD: opening global file: trenberth_taux.bin
(PID.TID 0000.0001)  MDSREADFIELD: opening global file: trenberth_taux.bin
(PID.TID 0000.0001)  MDSREADFIELD: opening global file: trenberth_tauy.bin
(PID.TID 0000.0001)  MDSREADFIELD: opening global file: trenberth_tauy.bin
(PID.TID 0000.0001)  MDSREADFIELD: opening global file: ncep_qnet.bin
(PID.TID 0000.0001)  MDSREADFIELD: opening global file: ncep_qnet.bin
(PID.TID 0000.0001)  MDSREADFIELD: opening global file: lev_sst.bin
(PID.TID 0000.0001)  MDSREADFIELD: opening global file: lev_sst.bin
(PID.TID 0000.0001)  MDSREADFIELD: opening global file: lev_sss.bin
(PID.TID 0000.0001)  MDSREADFIELD: opening global file: lev_sss.bin
time,SST,SSS,fu,fv,Q,E-P,i0,i1,a,b =   0.0000E+00  5.3151E-02  3.4364E+01 -4.0500E-02 -6.3753E-02  2.6510E+02  0.0000E+00    12     1  5.0000E-01  5.0000E-01
time,fu0,fu1,fu =   0.0000E+00 -4.5368E-02 -3.5633E-02 -4.0500E-02  5.000000000000000E-01  5.000000000000000E-01
(PID.TID 0000.0001)  MDSREADFIELD: opening file: xx_tauu.0000000000.001.001.data
(PID.TID 0000.0001)  MDSREADFIELD: opening file: xx_tauv.0000000000.001.001.data
(PID.TID 0000.0001)  MDSREADFIELD: opening file: xx_sflux.0000000000.001.001.data
(PID.TID 0000.0001)  MDSREADFIELD: opening file: xx_hflux.0000000000.001.001.data
 cg2d: Sum(rhs),rhsMax =  -5.41233724504764E-16  2.53364304519873E+00
time,SST,SSS,fu,fv,Q,E-P,i0,i1,a,b =   4.3200E+04  8.3327E-02  3.4375E+01 -4.0338E-02 -6.3536E-02  2.6512E+02  0.0000E+00    12     1  5.1667E-01  4.8333E-01
time,fu0,fu1,fu =   4.3200E+04 -4.5368E-02 -3.5633E-02 -4.0338E-02  5.166666666666667E-01  4.833333333333333E-01
 cg2d: Sum(rhs),rhsMax =   4.02664013243736E-14  5.05307478634997E+00
time,SST,SSS,fu,fv,Q,E-P,i0,i1,a,b =   8.6400E+04  1.1350E-01  3.4387E+01 -4.0176E-02 -6.3320E-02  2.6514E+02  0.0000E+00    12     1  5.3333E-01  4.6667E-01
time,fu0,fu1,fu =   8.6400E+04 -4.5368E-02 -3.5633E-02 -4.0176E-02  5.333333333333333E-01  4.666666666666667E-01
 cg2d: Sum(rhs),rhsMax =   7.91554322088217E-14  6.32564766002464E+00
(PID.TID 0000.0001) // =======================================================
(PID.TID 0000.0001) // Begin MONITOR dynamic field statistics
(PID.TID 0000.0001) // =======================================================
(PID.TID 0000.0001) %MON ad_time_tsnumber             =                     3
(PID.TID 0000.0001) %MON ad_time_secondsf             =   1.2960000000000E+05
(PID.TID 0000.0001) %MON ad_dynstat_adeta_max         =   3.5258234068387E-03
(PID.TID 0000.0001) %MON ad_dynstat_adeta_min         =  -3.2584237138389E-03
(PID.TID 0000.0001) %MON ad_dynstat_adeta_mean        =   8.9269211531153E-06
(PID.TID 0000.0001) %MON ad_dynstat_adeta_sd          =   2.8574057706083E-04
(PID.TID 0000.0001) %MON ad_dynstat_adeta_del2        =   3.1398862201117E-05
(PID.TID 0000.0001) %MON ad_dynstat_aduvel_max        =   6.7456552177006E-03
(PID.TID 0000.0001) %MON ad_dynstat_aduvel_min        =  -6.0595250914116E-03
(PID.TID 0000.0001) %MON ad_dynstat_aduvel_mean       =   8.9560172848720E-05
(PID.TID 0000.0001) %MON ad_dynstat_aduvel_sd         =   6.3627971691049E-04
(PID.TID 0000.0001) %MON ad_dynstat_aduvel_del2       =   4.1590391365011E-05
(PID.TID 0000.0001) %MON ad_dynstat_advvel_max        =   1.7621159873940E-02
(PID.TID 0000.0001) %MON ad_dynstat_advvel_min        =  -2.0054023955899E-02
(PID.TID 0000.0001) %MON ad_dynstat_advvel_mean       =  -3.5919083655806E-05
(PID.TID 0000.0001) %MON ad_dynstat_advvel_sd         =   1.0759460550025E-03
(PID.TID 0000.0001) %MON ad_dynstat_advvel_del2       =   7.7088078354091E-05
(PID.TID 0000.0001) %MON ad_dynstat_adwvel_max        =   1.7403816815561E+00
(PID.TID 0000.0001) %MON ad_dynstat_adwvel_min        =  -9.6648075295777E-01
(PID.TID 0000.0001) %MON ad_dynstat_adwvel_mean       =   1.7106480878173E-04
(PID.TID 0000.0001) %MON ad_dynstat_adwvel_sd         =   2.9707602485620E-02
(PID.TID 0000.0001) %MON ad_dynstat_adwvel_del2       =   1.7623374981996E-03
(PID.TID 0000.0001) %MON ad_dynstat_adtheta_max       =   4.1348063761024E-03
(PID.TID 0000.0001) %MON ad_dynstat_adtheta_min       =  -4.1278932804649E-03
(PID.TID 0000.0001) %MON ad_dynstat_adtheta_mean      =   7.3607269106812E-07
(PID.TID 0000.0001) %MON ad_dynstat_adtheta_sd        =   1.7649959694776E-04
(PID.TID 0000.0001) %MON ad_dynstat_adtheta_del2      =   1.1104550625289E-05
(PID.TID 0000.0001) %MON ad_dynstat_adsalt_max        =   1.5917332994017E-02
(PID.TID 0000.0001) %MON ad_dynstat_adsalt_min        =  -1.7835563046460E-02
(PID.TID 0000.0001) %MON ad_dynstat_adsalt_mean       =  -4.6531063281992E-06
(PID.TID 0000.0001) %MON ad_dynstat_adsalt_sd         =   8.2030699417801E-04
(PID.TID 0000.0001) %MON ad_dynstat_adsalt_del2       =   5.0483564673286E-05
(PID.TID 0000.0001) %MON ad_dynstat_adsst_max         =   1.7715768519707E-04
(PID.TID 0000.0001) %MON ad_dynstat_adsst_min         =  -1.0321952563012E-04
(PID.TID 0000.0001) %MON ad_dynstat_adsst_mean        =  -2.7682789126683E-07
(PID.TID 0000.0001) %MON ad_dynstat_adsst_sd          =   7.4940429681324E-06
(PID.TID 0000.0001) %MON ad_dynstat_adsst_del2        =   7.4215246032849E-07
(PID.TID 0000.0001) %MON ad_dynstat_adsss_max         =   3.1709008186986E-04
(PID.TID 0000.0001) %MON ad_dynstat_adsss_min         =  -5.6435389651298E-04
(PID.TID 0000.0001) %MON ad_dynstat_adsss_mean        =   2.2652632726260E-07
(PID.TID 0000.0001) %MON ad_dynstat_adsss_sd          =   2.5498923499268E-05
(PID.TID 0000.0001) %MON ad_dynstat_adsss_del2        =   2.7585519805396E-06
(PID.TID 0000.0001) %MON ad_extforcing_adqnet_max     =   0.0000000000000E+00
(PID.TID 0000.0001) %MON ad_extforcing_adqnet_min     =   0.0000000000000E+00
(PID.TID 0000.0001) %MON ad_extforcing_adqnet_mean    =   0.0000000000000E+00
(PID.TID 0000.0001) %MON ad_extforcing_adqnet_sd      =   0.0000000000000E+00
(PID.TID 0000.0001) %MON ad_extforcing_adqnet_del2    =   0.0000000000000E+00
(PID.TID 0000.0001) %MON ad_extforcing_adempmr_max    =   1.9381036254687E+03
(PID.TID 0000.0001) %MON ad_extforcing_adempmr_min    =  -2.1117927161300E+03
(PID.TID 0000.0001) %MON ad_extforcing_adempmr_mean   =   9.7833551496201E-02
(PID.TID 0000.0001) %MON ad_extforcing_adempmr_sd     =   1.0716428606511E+02
(PID.TID 0000.0001) %MON ad_extforcing_adempmr_del2   =   9.5630821104390E+00
(PID.TID 0000.0001) %MON ad_extforcing_adfu_max       =   0.0000000000000E+00
(PID.TID 0000.0001) %MON ad_extforcing_adfu_min       =   0.0000000000000E+00
(PID.TID 0000.0001) %MON ad_extforcing_adfu_mean      =   0.0000000000000E+00
(PID.TID 0000.0001) %MON ad_extforcing_adfu_sd        =   0.0000000000000E+00
(PID.TID 0000.0001) %MON ad_extforcing_adfu_del2      =   0.0000000000000E+00
(PID.TID 0000.0001) %MON ad_extforcing_adfv_max       =   0.0000000000000E+00
(PID.TID 0000.0001) %MON ad_extforcing_adfv_min       =   0.0000000000000E+00
(PID.TID 0000.0001) %MON ad_extforcing_adfv_mean      =   0.0000000000000E+00
(PID.TID 0000.0001) %MON ad_extforcing_adfv_sd        =   0.0000000000000E+00
(PID.TID 0000.0001) %MON ad_extforcing_adfv_del2      =   0.0000000000000E+00
(PID.TID 0000.0001) %MON ad_advcfl_aduvel_max         =   7.2907282090530E-04
(PID.TID 0000.0001) %MON ad_advcfl_advvel_max         =   1.9480876133775E-03
(PID.TID 0000.0001) %MON ad_advcfl_adwvel_max         =   3.6390238597383E+02
(PID.TID 0000.0001) %MON ad_advcfl_adW_hf_max         =   5.1374454490423E+02
(PID.TID 0000.0001) // =======================================================
(PID.TID 0000.0001) // End MONITOR dynamic field statistics
(PID.TID 0000.0001) // =======================================================
 cg2d: Sum(rhs),rhsMax =   5.37693153890295E-12  3.22300115988664E-08
(PID.TID 0000.0001) // =======================================================
(PID.TID 0000.0001) // Begin MONITOR dynamic field statistics
(PID.TID 0000.0001) // =======================================================
(PID.TID 0000.0001) %MON ad_time_tsnumber             =                     2
(PID.TID 0000.0001) %MON ad_time_secondsf             =   8.6400000000000E+04
(PID.TID 0000.0001) %MON ad_dynstat_adeta_max         =   3.6467902423866E-03
(PID.TID 0000.0001) %MON ad_dynstat_adeta_min         =  -3.2686056659695E-03
(PID.TID 0000.0001) %MON ad_dynstat_adeta_mean        =   9.0926981172310E-06
(PID.TID 0000.0001) %MON ad_dynstat_adeta_sd          =   2.8896258757484E-04
(PID.TID 0000.0001) %MON ad_dynstat_adeta_del2        =   3.1720467671898E-05
(PID.TID 0000.0001) %MON ad_dynstat_aduvel_max        =   6.1678459478112E-03
(PID.TID 0000.0001) %MON ad_dynstat_aduvel_min        =  -6.1452744377030E-03
(PID.TID 0000.0001) %MON ad_dynstat_aduvel_mean       =   8.1044464230255E-05
(PID.TID 0000.0001) %MON ad_dynstat_aduvel_sd         =   6.3446545868392E-04
(PID.TID 0000.0001) %MON ad_dynstat_aduvel_del2       =   4.2071816390355E-05
(PID.TID 0000.0001) %MON ad_dynstat_advvel_max        =   1.5356204465214E-02
(PID.TID 0000.0001) %MON ad_dynstat_advvel_min        =  -1.9223751053501E-02
(PID.TID 0000.0001) %MON ad_dynstat_advvel_mean       =  -2.4158029239209E-05
(PID.TID 0000.0001) %MON ad_dynstat_advvel_sd         =   1.0300329183114E-03
(PID.TID 0000.0001) %MON ad_dynstat_advvel_del2       =   7.5279438380166E-05
(PID.TID 0000.0001) %MON ad_dynstat_adwvel_max        =   1.7575209171329E+00
(PID.TID 0000.0001) %MON ad_dynstat_adwvel_min        =  -9.7126945536465E-01
(PID.TID 0000.0001) %MON ad_dynstat_adwvel_mean       =   1.7440450950011E-04
(PID.TID 0000.0001) %MON ad_dynstat_adwvel_sd         =   2.9956901099384E-02
(PID.TID 0000.0001) %MON ad_dynstat_adwvel_del2       =   1.7668850593978E-03
(PID.TID 0000.0001) %MON ad_dynstat_adtheta_max       =   4.1504333892793E-03
(PID.TID 0000.0001) %MON ad_dynstat_adtheta_min       =  -4.1613388918492E-03
(PID.TID 0000.0001) %MON ad_dynstat_adtheta_mean      =   7.2923143364095E-07
(PID.TID 0000.0001) %MON ad_dynstat_adtheta_sd        =   1.7683794467615E-04
(PID.TID 0000.0001) %MON ad_dynstat_adtheta_del2      =   1.1059692023091E-05
(PID.TID 0000.0001) %MON ad_dynstat_adsalt_max        =   1.5900763127789E-02
(PID.TID 0000.0001) %MON ad_dynstat_adsalt_min        =  -1.7908123584091E-02
(PID.TID 0000.0001) %MON ad_dynstat_adsalt_mean       =  -4.6951807985693E-06
(PID.TID 0000.0001) %MON ad_dynstat_adsalt_sd         =   8.2142349674272E-04
(PID.TID 0000.0001) %MON ad_dynstat_adsalt_del2       =   5.0275243099313E-05
(PID.TID 0000.0001) %MON ad_dynstat_adsst_max         =   1.7528806675775E-04
(PID.TID 0000.0001) %MON ad_dynstat_adsst_min         =  -1.0459468064979E-04
(PID.TID 0000.0001) %MON ad_dynstat_adsst_mean        =  -2.8109419155664E-07
(PID.TID 0000.0001) %MON ad_dynstat_adsst_sd          =   7.4958100608744E-06
(PID.TID 0000.0001) %MON ad_dynstat_adsst_del2        =   7.4568569192122E-07
(PID.TID 0000.0001) %MON ad_dynstat_adsss_max         =   3.2174349638576E-04
(PID.TID 0000.0001) %MON ad_dynstat_adsss_min         =  -5.6120578863129E-04
(PID.TID 0000.0001) %MON ad_dynstat_adsss_mean        =   2.2526611479604E-07
(PID.TID 0000.0001) %MON ad_dynstat_adsss_sd          =   2.5662056031290E-05
(PID.TID 0000.0001) %MON ad_dynstat_adsss_del2        =   2.7832260098971E-06
(PID.TID 0000.0001) %MON ad_extforcing_adqnet_max     =   0.0000000000000E+00
(PID.TID 0000.0001) %MON ad_extforcing_adqnet_min     =   0.0000000000000E+00
(PID.TID 0000.0001) %MON ad_extforcing_adqnet_mean    =   0.0000000000000E+00
(PID.TID 0000.0001) %MON ad_extforcing_adqnet_sd      =   0.0000000000000E+00
(PID.TID 0000.0001) %MON ad_extforcing_adqnet_del2    =   0.0000000000000E+00
(PID.TID 0000.0001) %MON ad_extforcing_adempmr_max    =   1.9511540682402E+03
(PID.TID 0000.0001) %MON ad_extforcing_adempmr_min    =  -2.1299804397855E+03
(PID.TID 0000.0001) %MON ad_extforcing_adempmr_mean   =   9.5136111502001E-02
(PID.TID 0000.0001) %MON ad_extforcing_adempmr_sd     =   1.0803822052612E+02
(PID.TID 0000.0001) %MON ad_extforcing_adempmr_del2   =   9.6459426088021E+00
(PID.TID 0000.0001) %MON ad_extforcing_adfu_max       =   0.0000000000000E+00
(PID.TID 0000.0001) %MON ad_extforcing_adfu_min       =   0.0000000000000E+00
(PID.TID 0000.0001) %MON ad_extforcing_adfu_mean      =   0.0000000000000E+00
(PID.TID 0000.0001) %MON ad_extforcing_adfu_sd        =   0.0000000000000E+00
(PID.TID 0000.0001) %MON ad_extforcing_adfu_del2      =   0.0000000000000E+00
(PID.TID 0000.0001) %MON ad_extforcing_adfv_max       =   0.0000000000000E+00
(PID.TID 0000.0001) %MON ad_extforcing_adfv_min       =   0.0000000000000E+00
(PID.TID 0000.0001) %MON ad_extforcing_adfv_mean      =   0.0000000000000E+00
(PID.TID 0000.0001) %MON ad_extforcing_adfv_sd        =   0.0000000000000E+00
(PID.TID 0000.0001) %MON ad_extforcing_adfv_del2      =   0.0000000000000E+00
(PID.TID 0000.0001) %MON ad_advcfl_aduvel_max         =   6.6662298901379E-04
(PID.TID 0000.0001) %MON ad_advcfl_advvel_max         =   1.8674332588977E-03
(PID.TID 0000.0001) %MON ad_advcfl_adwvel_max         =   3.6780452731573E+02
(PID.TID 0000.0001) %MON ad_advcfl_adW_hf_max         =   5.1925345032809E+02
(PID.TID 0000.0001) // =======================================================
(PID.TID 0000.0001) // End MONITOR dynamic field statistics
(PID.TID 0000.0001) // =======================================================
 cg2d: Sum(rhs),rhsMax =   5.15466141992604E-12  3.24373456463830E-08
(PID.TID 0000.0001) // =======================================================
(PID.TID 0000.0001) // Begin MONITOR dynamic field statistics
(PID.TID 0000.0001) // =======================================================
(PID.TID 0000.0001) %MON ad_time_tsnumber             =                     1
(PID.TID 0000.0001) %MON ad_time_secondsf             =   4.3200000000000E+04
(PID.TID 0000.0001) %MON ad_dynstat_adeta_max         =   3.7621530155371E-03
(PID.TID 0000.0001) %MON ad_dynstat_adeta_min         =  -3.2741767720650E-03
(PID.TID 0000.0001) %MON ad_dynstat_adeta_mean        =   9.2271760810278E-06
(PID.TID 0000.0001) %MON ad_dynstat_adeta_sd          =   2.9160726717801E-04
(PID.TID 0000.0001) %MON ad_dynstat_adeta_del2        =   3.1959271936821E-05
(PID.TID 0000.0001) %MON ad_dynstat_aduvel_max        =   5.9069016531361E-03
(PID.TID 0000.0001) %MON ad_dynstat_aduvel_min        =  -6.2607381700232E-03
(PID.TID 0000.0001) %MON ad_dynstat_aduvel_mean       =   7.2047293187096E-05
(PID.TID 0000.0001) %MON ad_dynstat_aduvel_sd         =   6.3289166401440E-04
(PID.TID 0000.0001) %MON ad_dynstat_aduvel_del2       =   4.2515465846295E-05
(PID.TID 0000.0001) %MON ad_dynstat_advvel_max        =   1.3236335429410E-02
(PID.TID 0000.0001) %MON ad_dynstat_advvel_min        =  -1.8265636871531E-02
(PID.TID 0000.0001) %MON ad_dynstat_advvel_mean       =  -1.2372870840050E-05
(PID.TID 0000.0001) %MON ad_dynstat_advvel_sd         =   9.8734032346469E-04
(PID.TID 0000.0001) %MON ad_dynstat_advvel_del2       =   7.4314781549930E-05
(PID.TID 0000.0001) %MON ad_dynstat_adwvel_max        =   1.7725403170631E+00
(PID.TID 0000.0001) %MON ad_dynstat_adwvel_min        =  -9.7507335354444E-01
(PID.TID 0000.0001) %MON ad_dynstat_adwvel_mean       =   1.7761179065104E-04
(PID.TID 0000.0001) %MON ad_dynstat_adwvel_sd         =   3.0124611719071E-02
(PID.TID 0000.0001) %MON ad_dynstat_adwvel_del2       =   1.7641972375112E-03
(PID.TID 0000.0001) %MON ad_dynstat_adtheta_max       =   4.1621175366929E-03
(PID.TID 0000.0001) %MON ad_dynstat_adtheta_min       =  -4.1907549787481E-03
(PID.TID 0000.0001) %MON ad_dynstat_adtheta_mean      =   7.2189719072014E-07
(PID.TID 0000.0001) %MON ad_dynstat_adtheta_sd        =   1.7694651555790E-04
(PID.TID 0000.0001) %MON ad_dynstat_adtheta_del2      =   1.0993489539584E-05
(PID.TID 0000.0001) %MON ad_dynstat_adsalt_max        =   1.5889829013860E-02
(PID.TID 0000.0001) %MON ad_dynstat_adsalt_min        =  -1.7962077904303E-02
(PID.TID 0000.0001) %MON ad_dynstat_adsalt_mean       =  -4.7302414021674E-06
(PID.TID 0000.0001) %MON ad_dynstat_adsalt_sd         =   8.2157722778087E-04
(PID.TID 0000.0001) %MON ad_dynstat_adsalt_del2       =   4.9963115098602E-05
(PID.TID 0000.0001) %MON ad_dynstat_adsst_max         =   1.7333465653889E-04
(PID.TID 0000.0001) %MON ad_dynstat_adsst_min         =  -1.0578567239494E-04
(PID.TID 0000.0001) %MON ad_dynstat_adsst_mean        =  -2.8814514118192E-07
(PID.TID 0000.0001) %MON ad_dynstat_adsst_sd          =   7.5009350093477E-06
(PID.TID 0000.0001) %MON ad_dynstat_adsst_del2        =   7.5250266849579E-07
(PID.TID 0000.0001) %MON ad_dynstat_adsss_max         =   3.2588455566423E-04
(PID.TID 0000.0001) %MON ad_dynstat_adsss_min         =  -5.5758289661475E-04
(PID.TID 0000.0001) %MON ad_dynstat_adsss_mean        =   2.3075893005840E-07
(PID.TID 0000.0001) %MON ad_dynstat_adsss_sd          =   2.5810016864883E-05
(PID.TID 0000.0001) %MON ad_dynstat_adsss_del2        =   2.8168419963310E-06
(PID.TID 0000.0001) %MON ad_extforcing_adqnet_max     =   0.0000000000000E+00
(PID.TID 0000.0001) %MON ad_extforcing_adqnet_min     =   0.0000000000000E+00
(PID.TID 0000.0001) %MON ad_extforcing_adqnet_mean    =   0.0000000000000E+00
(PID.TID 0000.0001) %MON ad_extforcing_adqnet_sd      =   0.0000000000000E+00
(PID.TID 0000.0001) %MON ad_extforcing_adqnet_del2    =   0.0000000000000E+00
(PID.TID 0000.0001) %MON ad_extforcing_adempmr_max    =   1.9642449814110E+03
(PID.TID 0000.0001) %MON ad_extforcing_adempmr_min    =  -2.1484792050993E+03
(PID.TID 0000.0001) %MON ad_extforcing_adempmr_mean   =   9.2063292386881E-02
(PID.TID 0000.0001) %MON ad_extforcing_adempmr_sd     =   1.0892046655453E+02
(PID.TID 0000.0001) %MON ad_extforcing_adempmr_del2   =   9.7294851858997E+00
(PID.TID 0000.0001) %MON ad_extforcing_adfu_max       =   0.0000000000000E+00
(PID.TID 0000.0001) %MON ad_extforcing_adfu_min       =   0.0000000000000E+00
(PID.TID 0000.0001) %MON ad_extforcing_adfu_mean      =   0.0000000000000E+00
(PID.TID 0000.0001) %MON ad_extforcing_adfu_sd        =   0.0000000000000E+00
(PID.TID 0000.0001) %MON ad_extforcing_adfu_del2      =   0.0000000000000E+00
(PID.TID 0000.0001) %MON ad_extforcing_adfv_max       =   0.0000000000000E+00
(PID.TID 0000.0001) %MON ad_extforcing_adfv_min       =   0.0000000000000E+00
(PID.TID 0000.0001) %MON ad_extforcing_adfv_mean      =   0.0000000000000E+00
(PID.TID 0000.0001) %MON ad_extforcing_adfv_sd        =   0.0000000000000E+00
(PID.TID 0000.0001) %MON ad_extforcing_adfv_del2      =   0.0000000000000E+00
(PID.TID 0000.0001) %MON ad_advcfl_aduvel_max         =   6.3947882982050E-04
(PID.TID 0000.0001) %MON ad_advcfl_advvel_max         =   1.7743601492714E-03
(PID.TID 0000.0001) %MON ad_advcfl_adwvel_max         =   3.7136054982601E+02
(PID.TID 0000.0001) %MON ad_advcfl_adW_hf_max         =   5.2427371740143E+02
(PID.TID 0000.0001) // =======================================================
(PID.TID 0000.0001) // End MONITOR dynamic field statistics
(PID.TID 0000.0001) // =======================================================
 cg2d: Sum(rhs),rhsMax =   4.89753376742286E-12  3.26071215290766E-08
 myIter=  0
 ph-mnc in addummy param  T
 ph-mnc in addummy myiter  0
(PID.TID 0000.0001)  MDSREADFIELD: opening file: adxx_hflux.0000000000.001.001.data
(PID.TID 0000.0001)  MDSREADFIELD: opening file: adxx_sflux.0000000000.001.001.data
(PID.TID 0000.0001)  MDSREADFIELD: opening file: adxx_tauv.0000000000.001.001.data
(PID.TID 0000.0001)  MDSREADFIELD: opening file: adxx_tauu.0000000000.001.001.data
(PID.TID 0000.0001) // =======================================================
(PID.TID 0000.0001) // Begin MONITOR dynamic field statistics
(PID.TID 0000.0001) // =======================================================
(PID.TID 0000.0001) %MON ad_time_tsnumber             =                     0
(PID.TID 0000.0001) %MON ad_time_secondsf             =   0.0000000000000E+00
(PID.TID 0000.0001) %MON ad_dynstat_adeta_max         =   3.8709296333972E-03
(PID.TID 0000.0001) %MON ad_dynstat_adeta_min         =  -3.2750159083152E-03
(PID.TID 0000.0001) %MON ad_dynstat_adeta_mean        =   9.4267906535432E-06
(PID.TID 0000.0001) %MON ad_dynstat_adeta_sd          =   2.9370133767665E-04
(PID.TID 0000.0001) %MON ad_dynstat_adeta_del2        =   3.2051925866553E-05
(PID.TID 0000.0001) %MON ad_dynstat_aduvel_max        =   5.9862046661561E-03
(PID.TID 0000.0001) %MON ad_dynstat_aduvel_min        =  -6.3840144591698E-03
(PID.TID 0000.0001) %MON ad_dynstat_aduvel_mean       =   6.4394841720860E-05
(PID.TID 0000.0001) %MON ad_dynstat_aduvel_sd         =   6.3436792812851E-04
(PID.TID 0000.0001) %MON ad_dynstat_aduvel_del2       =   4.2799491464639E-05
(PID.TID 0000.0001) %MON ad_dynstat_advvel_max        =   1.1455455262135E-02
(PID.TID 0000.0001) %MON ad_dynstat_advvel_min        =  -1.7254915280792E-02
(PID.TID 0000.0001) %MON ad_dynstat_advvel_mean       =  -6.5709163986047E-07
(PID.TID 0000.0001) %MON ad_dynstat_advvel_sd         =   9.5250222386034E-04
(PID.TID 0000.0001) %MON ad_dynstat_advvel_del2       =   7.5154474839597E-05
(PID.TID 0000.0001) %MON ad_dynstat_adwvel_max        =   7.1958244688822E-01
(PID.TID 0000.0001) %MON ad_dynstat_adwvel_min        =  -3.9307426906158E-01
(PID.TID 0000.0001) %MON ad_dynstat_adwvel_mean       =   7.3529677368586E-05
(PID.TID 0000.0001) %MON ad_dynstat_adwvel_sd         =   1.2147203299717E-02
(PID.TID 0000.0001) %MON ad_dynstat_adwvel_del2       =   7.0392599080880E-04
(PID.TID 0000.0001) %MON ad_dynstat_adtheta_max       =   4.2775141851017E+05
(PID.TID 0000.0001) %MON ad_dynstat_adtheta_min       =  -4.2775141851109E+05
(PID.TID 0000.0001) %MON ad_dynstat_adtheta_mean      =  -1.1044812654756E+00
(PID.TID 0000.0001) %MON ad_dynstat_adtheta_sd        =   1.8941257578937E+03
(PID.TID 0000.0001) %MON ad_dynstat_adtheta_del2      =   6.8887286905424E+01
(PID.TID 0000.0001) %MON ad_dynstat_adsalt_max        =   3.8468391678805E+06
(PID.TID 0000.0001) %MON ad_dynstat_adsalt_min        =  -3.8468391678722E+06
(PID.TID 0000.0001) %MON ad_dynstat_adsalt_mean       =   1.0832045438795E+01
(PID.TID 0000.0001) %MON ad_dynstat_adsalt_sd         =   1.8557088300359E+04
(PID.TID 0000.0001) %MON ad_dynstat_adsalt_del2       =   6.9372193464542E+02
(PID.TID 0000.0001) %MON ad_dynstat_adsst_max         =   1.7235932622157E-04
(PID.TID 0000.0001) %MON ad_dynstat_adsst_min         =  -1.0800646625158E-04
(PID.TID 0000.0001) %MON ad_dynstat_adsst_mean        =  -3.2798801632778E-07
(PID.TID 0000.0001) %MON ad_dynstat_adsst_sd          =   7.5220289717806E-06
(PID.TID 0000.0001) %MON ad_dynstat_adsst_del2        =   7.7488934034092E-07
(PID.TID 0000.0001) %MON ad_dynstat_adsss_max         =   3.3207332893057E-04
(PID.TID 0000.0001) %MON ad_dynstat_adsss_min         =  -5.5553314402121E-04
(PID.TID 0000.0001) %MON ad_dynstat_adsss_mean        =   2.7594737264937E-07
(PID.TID 0000.0001) %MON ad_dynstat_adsss_sd          =   2.5747619626291E-05
(PID.TID 0000.0001) %MON ad_dynstat_adsss_del2        =   2.8347954441884E-06
(PID.TID 0000.0001) %MON ad_extforcing_adqnet_max     =   0.0000000000000E+00
(PID.TID 0000.0001) %MON ad_extforcing_adqnet_min     =   0.0000000000000E+00
(PID.TID 0000.0001) %MON ad_extforcing_adqnet_mean    =   0.0000000000000E+00
(PID.TID 0000.0001) %MON ad_extforcing_adqnet_sd      =   0.0000000000000E+00
(PID.TID 0000.0001) %MON ad_extforcing_adqnet_del2    =   0.0000000000000E+00
(PID.TID 0000.0001) %MON ad_extforcing_adempmr_max    =   1.9721607200402E+03
(PID.TID 0000.0001) %MON ad_extforcing_adempmr_min    =  -2.1582532832247E+03
(PID.TID 0000.0001) %MON ad_extforcing_adempmr_mean   =   8.4853000494677E-02
(PID.TID 0000.0001) %MON ad_extforcing_adempmr_sd     =   1.0938703035346E+02
(PID.TID 0000.0001) %MON ad_extforcing_adempmr_del2   =   9.7703324350148E+00
(PID.TID 0000.0001) %MON ad_extforcing_adfu_max       =   0.0000000000000E+00
(PID.TID 0000.0001) %MON ad_extforcing_adfu_min       =   0.0000000000000E+00
(PID.TID 0000.0001) %MON ad_extforcing_adfu_mean      =   0.0000000000000E+00
(PID.TID 0000.0001) %MON ad_extforcing_adfu_sd        =   0.0000000000000E+00
(PID.TID 0000.0001) %MON ad_extforcing_adfu_del2      =   0.0000000000000E+00
(PID.TID 0000.0001) %MON ad_extforcing_adfv_max       =   0.0000000000000E+00
(PID.TID 0000.0001) %MON ad_extforcing_adfv_min       =   0.0000000000000E+00
(PID.TID 0000.0001) %MON ad_extforcing_adfv_mean      =   0.0000000000000E+00
(PID.TID 0000.0001) %MON ad_extforcing_adfv_sd        =   0.0000000000000E+00
(PID.TID 0000.0001) %MON ad_extforcing_adfv_del2      =   0.0000000000000E+00
(PID.TID 0000.0001) %MON ad_advcfl_aduvel_max         =   6.5207040847899E-04
(PID.TID 0000.0001) %MON ad_advcfl_advvel_max         =   1.6761766517438E-03
(PID.TID 0000.0001) %MON ad_advcfl_adwvel_max         =   1.5101848585161E+02
(PID.TID 0000.0001) %MON ad_advcfl_adW_hf_max         =   2.1320256826110E+02
(PID.TID 0000.0001) // =======================================================
(PID.TID 0000.0001) // End MONITOR dynamic field statistics
(PID.TID 0000.0001) // =======================================================
(PID.TID 0000.0001)  MDSREADFIELD: opening global file: bathymetry.bin
(PID.TID 0000.0001) // =======================================================
(PID.TID 0000.0001) // Field Model R_low (ini_masks_etc) at iteration          1
(PID.TID 0000.0001) // CMIN =         -5.200000000000000E+03
(PID.TID 0000.0001) // CMAX =         -1.200000000000000E+02
(PID.TID 0000.0001) // CINT =          1.881481481481482E+02
(PID.TID 0000.0001) // SYMBOLS (CMIN->CMAX): -abcdefghijklmnopqrstuvwxyz+
(PID.TID 0000.0001) //                  0.0: .
(PID.TID 0000.0001) // RANGE I (Lo:Hi:Step):(  -2:  93:   1)
(PID.TID 0000.0001) // RANGE J (Lo:Hi:Step):(  43:  -2:  -1)
(PID.TID 0000.0001) // RANGE K (Lo:Hi:Step):(   1:   1:   1)
(PID.TID 0000.0001) // =======================================================
(PID.TID 0000.0001) K =   1
(PID.TID 0000.0001) //                I=7       I=17      I=27      I=37      I=47      I=57      I=67      I=77      I=87
(PID.TID 0000.0001) // |--J--|210123456|890123456|890123456|890123456|890123456|890123456|890123456|890123456|890123456|890123
(PID.TID 0000.0001) //     43 ................................................................................................
(PID.TID 0000.0001) //     42 .............................................zyxxmgfeeefefgimnpwwwy..+zyy.....yyyyoiiihhz+......
(PID.TID 0000.0001) //     41 ................................................................................................
(PID.TID 0000.0001) //     40 +qlloqz+.++++zzz++++++..................................................................+++qlloq
(PID.TID 0000.0001) //     39 uslloorzzzzzzzzz+...++.....................................................yxxz........+zvuslloo
(PID.TID 0000.0001) //     38 smqpporzzzzzz+++...........................................................zxxy+......zyyvsmqppo
(PID.TID 0000.0001) //     37 smmmuz..................................................................++...zy+...yttyy.+smmmuz
(PID.TID 0000.0001) //     36 yutt+.........................................mm++....................+++++++znmm.yoowssvuyutt+.
(PID.TID 0000.0001) //     35 w++++.................................+zzz..rrmmkk+...+gghn...........+++....+nmiijlsoopuww++++.
(PID.TID 0000.0001) //     34 +.....................................+vvy.ggqyxv+y.ccdffhim..................+nihhikkihhm+.....
(PID.TID 0000.0001) //     33 w+.....................................uuz---h------aaabdefin+.................zqvddflifffw+....
(PID.TID 0000.0001) //     32 m+.....................................+t----h---------acdfgnn................+++gdffkofffm+....
(PID.TID 0000.0001) //     31 m......................................-----ad--------abddegil..............qbaafccdhqqgddm.....
(PID.TID 0000.0001) //     30 i.....................................f----b--b------------abd............zfbb--fbcdosjfddi.....
(PID.TID 0000.0001) //     29 i...................................tu----e---fjg----------abdf...........eaac--abfmijaadgi.....
(PID.TID 0000.0001) //     28 z.................................+xfl-------------------bdedefi.........qbaa---aemfbbaaejz.....
(PID.TID 0000.0001) //     27 .................xx..............+wfgfpf--------eallc---bbbccefgi...+++x.qb-----akfa---ah.......
(PID.TID 0000.0001) //     26 .................xnn...........+vd---dna------a--aicfna---aabdfghku.++xssuy-----bgca---ci.......
(PID.TID 0000.0001) //     25 .................iiik...oo+...+ivd---doaa-bc--ilglf--aa---aabcghhkll...ssum+xaaacjbaabdjk.......
(PID.TID 0000.0001) //     24 ...............xnheeft.kkk+...uii.aagdm----aa-----a-------bbbcdefjljjju.zummwwbbchba--abi.......
(PID.TID 0000.0001) //     23 ...............xgheefp.iikw...uuw..fihi----fed-----eaaa--bbbbcdfflkjiiiq....zykccefa--abd.......
(PID.TID 0000.0001) //     22 quss...........bbelffslffkk...zz.wqkeeqoheccdfa-----egabaabcdddegghliiiqq......xeeehheehccquss..
(PID.TID 0000.0001) //     21 cbbeir........nbbcdjhqdddiiz.....wqfeelgghmedea-----bibbcddddddefghklnqoo........ieeflhgcccbbeir
(PID.TID 0000.0001) //     20 cbbder.......ldcccdgkccccidd......z.vkkktqqhegg----aaacddddddddefghkiiijl.........nhfa--gfcbbder
(PID.TID 0000.0001) //     19 hcdaaf.......kddosggpaaaibbccx...+z+.....r+nlec---agaaabcddccddefikfgffff...........d---cjhcdaaf
(PID.TID 0000.0001) //     18 hd---d.......kglggvliaaaibbcaaeaiv++...qqzolhecccfdgkaabcdfccdeeikgfgffdd+..........d---djhd---d
(PID.TID 0000.0001) //     17 hc---c.......l.feewlfaaaoaa----aiv.....qqnllslmlofcdbaacceffffhhligfigeddj.........hd---ckhc---c
(PID.TID 0000.0001) //     16 gba--c......tn.ddgnlfdaaqa-----lv.......vnllvllnwv--accivomfffhilhgfffeddjf........re--aeigba--c
(PID.TID 0000.0001) //     15 fb--dpz....+ll.ccdfhmdddlc----av.........otsxoomv---abccddfihgijkhgfffeejfff......+fd---ckfb--dp
(PID.TID 0000.0001) //     14 fc--mcl....weeqbaafilkfend--eagy.........hhstofft----aacdheefijkmjhhjijiffff.....zlfdaaadlfc--mc
(PID.TID 0000.0001) //     13 hcclbbg....nccobaaiddgkffqrqeaal.........eeutqfft------aaceeffhijlkjhhigfffq....+jgfodccflhcclbb
(PID.TID 0000.0001) //     12 hhgaaacw+iiicclemhdddfliigfdcaabfaaaz....ccsurqpc--------abcifffikiiihhggff.....kbbbdfffglhhgaaa
(PID.TID 0000.0001) //     11 kgcaaacbbifccennhbbdefnihgfdccaaaa----..dcccnt.ncab-------aabcdfilhggjiggff....l---abcefjlkgcaaa
(PID.TID 0000.0001) //     10 kfcaaccbdaacfrllfbbdegkmmljhfdddba----d.dcccfx.nyrebaba----abcdgilhfeegijgi..+w--aa-abcfilkfcaac
(PID.TID 0000.0001) //      9 lffcdcccaaaoqsolfdeehikihhlllgfedcccccdmdcccf.vyfaaaaaaaa--abdehmjhfeeefglv.++w-----abcdfklffcdc
(PID.TID 0000.0001) //      8 liffjklcaafddffeeccvznkfffhhhlkjifgjkkfeeddfsyvcaaaaaaccdcccdfgjligedbbceg+.++xffn--cfddefliffjk
(PID.TID 0000.0001) //      7 hmqnnbbkkf--bmbaabbgtykfddeffeeddccdfhlffeelfbaaaaaacddeghgjgjlligeddaaabedfiiiiiisvkfkecchmqnnb
(PID.TID 0000.0001) //      6 cca-------------aabcelttdddedddddccccdfkkiiffbaaaabcdgimmkmefecaaabbbaaabbdfiiiiispmmregifcca---
(PID.TID 0000.0001) //      5 --------a-------aaccehhhiddeddddddcccdfiikomodddefffmlmigedccaaaaaaaababbbdfiijsqgeccccbaa------
(PID.TID 0000.0001) //      4 --ahebaabbbbbeihffgijiiiijpywnnpokkomkiiijmmmolkommmgffeeedccaaaaaabbcccefhmz..yjgeccccbaa--aheb
(PID.TID 0000.0001) //      3 gffhhrpjiiwyy............................yxotmjjjjgfeeeeeeddeffffheddeghjkyy..yqjgeddccdbbgffhhr
(PID.TID 0000.0001) //      2 .............................................zyxxmgfeeefefgimnpwwwy..+zyy.....yyyyoiiihhz+......
(PID.TID 0000.0001) //      1 ................................................................................................
(PID.TID 0000.0001) //      0 +qlloqz+.++++zzz++++++..................................................................+++qlloq
(PID.TID 0000.0001) //     -1 uslloorzzzzzzzzz+...++.....................................................yxxz........+zvuslloo
(PID.TID 0000.0001) //     -2 ................................................................................................
(PID.TID 0000.0001) // =======================================================
(PID.TID 0000.0001) // END OF FIELD                                          =
(PID.TID 0000.0001) // =======================================================
(PID.TID 0000.0001) 
(PID.TID 0000.0001) // =======================================================
(PID.TID 0000.0001) // Field Model Ro_surf (ini_masks_etc) at iteration          1
(PID.TID 0000.0001) // CMIN =          1.000000000000000E+32
(PID.TID 0000.0001) // CMAX =         -1.000000000000000E+32
(PID.TID 0000.0001) // CINT =          0.000000000000000E+00
(PID.TID 0000.0001) // SYMBOLS (CMIN->CMAX): -abcdefghijklmnopqrstuvwxyz+
(PID.TID 0000.0001) //                  0.0: .
(PID.TID 0000.0001) // RANGE I (Lo:Hi:Step):(  -2:  93:   1)
(PID.TID 0000.0001) // RANGE J (Lo:Hi:Step):(  43:  -2:  -1)
(PID.TID 0000.0001) // RANGE K (Lo:Hi:Step):(   1:   1:   1)
(PID.TID 0000.0001) // =======================================================
(PID.TID 0000.0001) // =======================================================
(PID.TID 0000.0001) // END OF FIELD                                          =
(PID.TID 0000.0001) // =======================================================
(PID.TID 0000.0001) 
(PID.TID 0000.0001) // =======================================================
(PID.TID 0000.0001) // Field hFacC at iteration          1
(PID.TID 0000.0001) // CMIN =          1.000000000000000E+00
(PID.TID 0000.0001) // CMAX =          1.000000000000000E+00
(PID.TID 0000.0001) // CINT =          0.000000000000000E+00
(PID.TID 0000.0001) // SYMBOLS (CMIN->CMAX): -abcdefghijklmnopqrstuvwxyz+
(PID.TID 0000.0001) //                  0.0: .
(PID.TID 0000.0001) // RANGE I (Lo:Hi:Step):(  -2:  93:   1)
(PID.TID 0000.0001) // RANGE J (Lo:Hi:Step):(  43:  -2:  -1)
(PID.TID 0000.0001) // RANGE K (Lo:Hi:Step):(   1:   1:   1)
(PID.TID 0000.0001) // =======================================================
(PID.TID 0000.0001) // =======================================================
(PID.TID 0000.0001) // END OF FIELD                                          =
(PID.TID 0000.0001) // =======================================================
(PID.TID 0000.0001) 
(PID.TID 0000.0001) // =======================================================
(PID.TID 0000.0001) // Field hFacW at iteration          1
(PID.TID 0000.0001) // CMIN =          1.000000000000000E+00
(PID.TID 0000.0001) // CMAX =          1.000000000000000E+00
(PID.TID 0000.0001) // CINT =          0.000000000000000E+00
(PID.TID 0000.0001) // SYMBOLS (CMIN->CMAX): -abcdefghijklmnopqrstuvwxyz+
(PID.TID 0000.0001) //                  0.0: .
(PID.TID 0000.0001) // RANGE I (Lo:Hi:Step):(  -2:  93:   1)
(PID.TID 0000.0001) // RANGE J (Lo:Hi:Step):(  43:  -2:  -1)
(PID.TID 0000.0001) // RANGE K (Lo:Hi:Step):(   1:   1:   1)
(PID.TID 0000.0001) // =======================================================
(PID.TID 0000.0001) // =======================================================
(PID.TID 0000.0001) // END OF FIELD                                          =
(PID.TID 0000.0001) // =======================================================
(PID.TID 0000.0001) 
(PID.TID 0000.0001) // =======================================================
(PID.TID 0000.0001) // Field hFacS at iteration          1
(PID.TID 0000.0001) // CMIN =          1.000000000000000E+00
(PID.TID 0000.0001) // CMAX =          1.000000000000000E+00
(PID.TID 0000.0001) // CINT =          0.000000000000000E+00
(PID.TID 0000.0001) // SYMBOLS (CMIN->CMAX): -abcdefghijklmnopqrstuvwxyz+
(PID.TID 0000.0001) //                  0.0: .
(PID.TID 0000.0001) // RANGE I (Lo:Hi:Step):(  -2:  93:   1)
(PID.TID 0000.0001) // RANGE J (Lo:Hi:Step):(  43:  -2:  -1)
(PID.TID 0000.0001) // RANGE K (Lo:Hi:Step):(   1:   1:   1)
(PID.TID 0000.0001) // =======================================================
(PID.TID 0000.0001) // =======================================================
(PID.TID 0000.0001) // END OF FIELD                                          =
(PID.TID 0000.0001) // =======================================================
(PID.TID 0000.0001) 
(PID.TID 0000.0001)  MDSREADFIELD: opening global file: lev_t.bin
(PID.TID 0000.0001) // =======================================================
(PID.TID 0000.0001) // Field Initial Temperature at iteration          1
(PID.TID 0000.0001) // CMIN =         -1.900000000000000E+00
(PID.TID 0000.0001) // CMAX =          2.973338890075684E+01
(PID.TID 0000.0001) // CINT =          1.171606996324327E+00
(PID.TID 0000.0001) // SYMBOLS (CMIN->CMAX): -abcdefghijklmnopqrstuvwxyz+
(PID.TID 0000.0001) //                  0.0: .
(PID.TID 0000.0001) // RANGE I (Lo:Hi:Step):(   1:  90:   1)
(PID.TID 0000.0001) // RANGE J (Lo:Hi:Step):(  40:   1:  -1)
(PID.TID 0000.0001) // RANGE K (Lo:Hi:Step):(   1:   1:   1)
(PID.TID 0000.0001) // =======================================================
(PID.TID 0000.0001) K =   1
(PID.TID 0000.0001)                I=10      I=20      I=30      I=40      I=50      I=60      I=70      I=80      I=90
(PID.TID 0000.0001) |--J--|123456789|123456789|123456789|123456789|123456789|123456789|123456789|123456789|123456789|
(PID.TID 0000.0001)     40 bccdd.baa----abdedd..................................................................bbbbb
(PID.TID 0000.0001)     39 ccdddddccbbbaa...ed.....................................................----........bbbbbb
(PID.TID 0000.0001)     38 fffgfedeedddc...........................................................-----......cbbbcde
(PID.TID 0000.0001)     37 ghh..................................................................bc...bbc...edeed.defg
(PID.TID 0000.0001)     36 hh.........................................ddcb....................dcccbabccdd.eefghhihhih
(PID.TID 0000.0001)     35 hh.................................aaab..dddeddd...ffggg...........ccc....ddeeeffghijjjjih
(PID.TID 0000.0001)     34 ...................................babb.deeeeeee.ffffgghh..................ccdffghijkkkj..
(PID.TID 0000.0001)     33 ....................................accdddeeeeefffffgghhiii.................bcfijkkllllkk.
(PID.TID 0000.0001)     32 ....................................bdddeffgffgghhhhhiiijjj................dccglmnmmmmlll.
(PID.TID 0000.0001)     31 ....................................fghiiiijjjjjjkkkkklllkk..............ikkjjmooooonnmm..
(PID.TID 0000.0001)     30 ...................................mmmnmmmmmmmmmmmmmnnnnnmm............moqrrrqrqqqpppooo..
(PID.TID 0000.0001)     29 .................................pqqqqqpppppppppoppoppppponm...........ssssssrrrrrqqqqpp..
(PID.TID 0000.0001)     28 ...............................prssssrrrsssrrrrrrrrrrrrrqqpoo.........uttssstssrssrrrqqq..
(PID.TID 0000.0001)     27 ..............vv..............stuttuuuuutuuuuuuuuuuttttssrrqqq...stuu.vvvuuuuutttttsss....
(PID.TID 0000.0001)     26 ..............vvv...........uuvvvvvwwwwwwwwvvvvvvvvvuuutttsssttv.uuvxxwwwwwwvvvvuuttsr....
(PID.TID 0000.0001)     25 ..............wwwx...xxx...vvvxxxxxyyxxxxxxxxxwwwwwvvvvvuuuuuvwwx...xxxxxxwwwwwwvvutsr....
(PID.TID 0000.0001)     24 ............wwwwxyy.xxyy...wxx.yyyyyyyyyyyxxxxxxxxwwwwwwwvvwwxxyywww.xxxxxxxxxxwwwvvur....
(PID.TID 0000.0001)     23 ............xxxyyyz.xyyy...xxx..yyyyzzyyyyyyyyxxxxxxxxxwwwwwxxxwwwwwx....vwxxxxwwwwwvu....
(PID.TID 0000.0001)     22 w...........xxyyyzyyyyyz...xx.yyzzzzzzzzzzzzzyyzyyyyyyxxwwxxxxwvvvwwxw......yyyyxxxxxxwxxw
(PID.TID 0000.0001)     21 xxx........xxxxyyzzzzzzz+.....zyzzzzzzz++zzzzyyyyyyyyxxwvvwwwwvvvvvvvu........yyyyyyyyyxxx
(PID.TID 0000.0001)     20 xww.......xyyyyxyyzzzzzz+......z.zzzzz+++zzzzzzyyyyyxxxxwvwxwvuuuuuuut.........yyyyxxxxwww
(PID.TID 0000.0001)     19 vvv.......yyyyxwwxyzyyzzzzz...zzz.....++++++z++z+zzzyyyyxxxxwwvvvvvvvu...........yyxxxwwww
(PID.TID 0000.0001)     18 uut.......zzyyywwxyzyyyyzzyzzzzzz...z+z++++zz+++++++zzzyyyyxxwwwvvvvvtt..........yyxxwvvwv
(PID.TID 0000.0001)     17 uus.......z.yyyyyyxyzzyyyyyyyzz.....yzzzzzzzzzzzzzzzzzzyyyyxxwwvuuvvuut.........yyyxxwttvu
(PID.TID 0000.0001)     16 utr......yy.zyyyyxxxxxxxwxxxxy.......yyyyyyyyyyyyyyyyyyyyyyyxxwvvvuuutts........xyyyxwvuuu
(PID.TID 0000.0001)     15 ttrr....xxx.xxxwxwwwwvwwvvvww.........xwxxxxxxxxxxxxxxxxxyyyxwwwvvuttssrr......wxxxxxwwvuu
(PID.TID 0000.0001)     14 ttsq....xyxwwxwvwwwvutuuuuuuu.........wwvwwwwvwvvwwwvwvvwwwwwwvvvuuutssrr.....vwwwwwwwvvvu
(PID.TID 0000.0001)     13 tttr....wwwvvvtttuuuutttssttt.........vvvuuuuuuutttttuuuuuvwwwuuuttttssrr....uvvvvvvvvvvut
(PID.TID 0000.0001)     12 sssssstttutssssrrrrrstrqqrrssqqrrq....uuttssssrrrrrrrrrrrstttssssrssrrqp.....uuuttssttssss
(PID.TID 0000.0001)     11 poprsssrqqqqqrqppooopqpoppppppppppp..sssrrr.rqpppqqqqppppqqqoppqqqqrqqpp....prsrqqqqqppppq
(PID.TID 0000.0001)     10 lllmoooonmnnmnnnnmmmmmmlmmlllmnnnnon.qqqppp.ppppppooooooooonmnnnonnooooo..nmoponnmnnnnnmll
(PID.TID 0000.0001)      9 ihhiiiihhhhhhiiihiiiiihhhiiiijjkkmnllnnnnn.mmmmnnnnmmmmnnmmlklllllklllll.mllmmllkjiijjihhi
(PID.TID 0000.0001)      8 eeeeeeeedefgggffeeffggffffggghiiiijjijklklkkkkkkkklllkkkkjjiiijkjjjjjjkj.kkjjiihggffffedde
(PID.TID 0000.0001)      7 cccccddeedddefeddddddddddefeefffffgggghiiiiiijjjihhgggghhhhhghhhhhhhiiiihiihhgfeddddddcccc
(PID.TID 0000.0001)      6 abbcccddcccccdddddccdddddddccddddddeeeeffggggghhgeddddddeeeeeeefggggghggggffeedccbbbbbbbba
(PID.TID 0000.0001)      5 bbbcccccccccccccccccccccbbccccdddddddcccddeeddeedcbbbbbbccccccdddeeeeeddddddccbbbbaaaaaaab
(PID.TID 0000.0001)      4 bbbbbbbaaabbbbbbbbbbbbaabbabbbbcbbbbbbbbbbbbbbbbbbbabbaaabbbbbbbbbbbbbbbbb..a--aaabbbaaabb
(PID.TID 0000.0001)      3 bbbbaaa-a-............................bbaaaaaaaaaaaaaaaaaaaaaaaaaaaaaaaab..aaaaaaaabbbaaaa
(PID.TID 0000.0001)      2 ..........................................baaaaaaaaaaaa-------aa..aaaa.....aaaaaaaaaaaa...
(PID.TID 0000.0001)      1 ..........................................................................................
(PID.TID 0000.0001) // =======================================================
(PID.TID 0000.0001) // END OF FIELD                                          =
(PID.TID 0000.0001) // =======================================================
(PID.TID 0000.0001) 
(PID.TID 0000.0001)  MDSREADFIELD: opening global file: lev_s.bin
(PID.TID 0000.0001) // =======================================================
(PID.TID 0000.0001) // Field Initial Salinity at iteration          1
(PID.TID 0000.0001) // CMIN =          2.975276947021484E+01
(PID.TID 0000.0001) // CMAX =          3.747562789916992E+01
(PID.TID 0000.0001) // CINT =          2.860317936650029E-01
(PID.TID 0000.0001) // SYMBOLS (CMIN->CMAX): -abcdefghijklmnopqrstuvwxyz+
(PID.TID 0000.0001) //                  0.0: .
(PID.TID 0000.0001) // RANGE I (Lo:Hi:Step):(   1:  90:   1)
(PID.TID 0000.0001) // RANGE J (Lo:Hi:Step):(  40:   1:  -1)
(PID.TID 0000.0001) // RANGE K (Lo:Hi:Step):(   1:   1:   1)
(PID.TID 0000.0001) // =======================================================
(PID.TID 0000.0001) K =   1
(PID.TID 0000.0001)                I=10      I=20      I=30      I=40      I=50      I=60      I=70      I=80      I=90
(PID.TID 0000.0001) |--J--|123456789|123456789|123456789|123456789|123456789|123456789|123456789|123456789|123456789|
(PID.TID 0000.0001)     40 qrrrr.oonnooopqtutt..................................................................mnnop
(PID.TID 0000.0001)     39 rssrrrrrrrqqpn...ut.....................................................mmmm........opqqqr
(PID.TID 0000.0001)     38 ssrrqqqqrrqpo...........................................................lkkll......onoqrrs
(PID.TID 0000.0001)     37 ssr..................................................................hg...lln...qppqr.rrrs
(PID.TID 0000.0001)     36 rr.........................................lkji....................feeegikmoop.pqrssssssss
(PID.TID 0000.0001)     35 rr.................................kkkk..lllllki...jijjj...........aa-....opqrrrrrrrssttss
(PID.TID 0000.0001)     34 ...................................jlll.kklllllk.ijkkkjih..................hlpqrqrrsstts..
(PID.TID 0000.0001)     33 ....................................iklkkkkkkkkkjkkjjjjjjii.................jmprrsstttttt.
(PID.TID 0000.0001)     32 ....................................iklllkllllllllkkkkkkkji................gilpstuuttuuut.
(PID.TID 0000.0001)     31 ....................................lmnonnnnoooonnmmmmllkjj..............loopqtvvvuuuuuu..
(PID.TID 0000.0001)     30 ...................................pppppppqqqqpppoooonnmlkk............ptvxwwvvwvvvvvvvu..
(PID.TID 0000.0001)     29 .................................pqqrqqqqqqrrrqqppqqqpponmll...........vxxxxxxwwwwwxwwxw..
(PID.TID 0000.0001)     28 ...............................prrrrrqqrrrrrsrrsrssssssrqonmm.........wxxxxxxxyyyyyyyyxx..
(PID.TID 0000.0001)     27 ..............xx..............prrrrrrrrrssssssstttssssssrqpoop...uwww.wwxxxyyy++zzzzyy....
(PID.TID 0000.0001)     26 ..............wxx...........ppqrrrrrrsssrrstsstttssrrrrrrrqppqqp.wwwvvwwwwwxyy+++zzyxw....
(PID.TID 0000.0001)     25 ..............wxxv...kkk...ooopqrrrrrssrrrrrrrssssqqpppppppppppoo...vvutuuvvwxyyyxxvvu....
(PID.TID 0000.0001)     24 ............uvvwwur.lmlk...nmm.pqqqqrrrrrqqqqrrqqrpppppooooonmmmnooo.uuuuuuttuvvvuvuut....
(PID.TID 0000.0001)     23 ............vvuvtqp.lmml...mln..ppppqpqppppppqpppppppppqppponnnnnoopm....xvuuuvvvvuuut....
(PID.TID 0000.0001)     22 r...........vuttsqqpnppn...mm.oppqqrrqqqqqqppppqqrrrqqqrrppppoopooomjj......uuvvvvvuttssrr
(PID.TID 0000.0001)     21 qmm........ttsssssssrsqon.....opqqqqqqqrrrrqqqssssssrrrrrrrrpqqqppomll........tvvvvuttssrr
(PID.TID 0000.0001)     20 sqq.......sttssrrsrrrrpol......p.qrqpqrrrrrrrstttttsssrrsssrqrrrrqqqpo.........wwwvvvuuutt
(PID.TID 0000.0001)     19 tsr.......ssssrrrrpppppnmmm...oqq.....qrqqsrrstttuuuttssttssrrssrrrrqq...........wwwvuvvvv
(PID.TID 0000.0001)     18 wut.......ssrrrrrqppppppppoooorrr...poqqqprrrttttuuutuuuuuutttttttutsss..........yyxwwxwxx
(PID.TID 0000.0001)     17 wwu.......s.rrrrrrqppppqqqqqqqr.....rrsrqrsssuusrtuuuvvvwwvvvuuuuutttss.........xyzyyyyxxx
(PID.TID 0000.0001)     16 vvt......ss.qrrssrqrqpqrrrrrrr.......ssrrstsstusrsuuuvwwwwxxwwvvvuttttsr........yz+zzzxwww
(PID.TID 0000.0001)     15 utss....stt.rrssstttsrrsrstsr.........ssstttssttsuuttuvvvvwxwwwwwuttsssrr......xyyyyxyyxwv
(PID.TID 0000.0001)     14 utts....sstrrssstuuuuuuuuuutt.........stttuutttttttuttttttuvvvvvvutsrqrrr.....vxxwwwwxwvwv
(PID.TID 0000.0001)     13 uuut....ttttttttuuuuuvtuuuuuu.........ttttuutttttttuutsssstttttstsqrqqppp....uwwwvuvvvutvv
(PID.TID 0000.0001)     12 ttttttttttttttttttttttssuuuuutuuut....tttttttttttsssssrrrrrrrqqqqqppppoo.....rvvuuttttttuu
(PID.TID 0000.0001)     11 rqsttttttttuuttttsssssrrstttttttsss..ttttts.tsssrrrrqqqqqppppoonnooooooo....oruttttsssrqrs
(PID.TID 0000.0001)     10 pppqrssrqqrqpqrssrrqqqqqqrrrrrrrrrrs.sssssr.rssrrqqpppppppooooonnnoooonn..moqrrrqqqqqqqqqq
(PID.TID 0000.0001)      9 oonooooooooonnnooooooooooppppppqqqqqrrrqrq.pppqqqqqppppppppppoooooooooll.lmoqqqqppooooopoo
(PID.TID 0000.0001)      8 nnnoonooooooonnnnnnnoooonoonoooppopqqqqqqqppopppqqqpppppppppppppppooopon.lnopppoooonnnnooo
(PID.TID 0000.0001)      7 ooooooooooopponnnooooooonnnnnonnooooooooopppppppoooooooooopppppppppoopqnnmnoooonnnonnnnnno
(PID.TID 0000.0001)      6 oooonnoonnnnooooooooooooonnnnnnnnnnnnnnnnoooopppooooooooooooooppppppppppoooooooonnnnnmnnnn
(PID.TID 0000.0001)      5 oooonnnnnnnnnnnnnnnnnoooooonnnnnnonnnnnnnnnoooooooooooonnnnnnooooooopoooonoooonnnnnnnooooo
(PID.TID 0000.0001)      4 oooonnnooonnnnnnnnnnnnnnoooooonnnooooonnnooooooooppponnnnmmmnnnnmnnoonnnnn..nnnooooooooooo
(PID.TID 0000.0001)      3 ooonnnnnnn............................nnoooooonnooooonnnnnnnoonnnnnnnnmmm..ooopooooooooooo
(PID.TID 0000.0001)      2 ..........................................pppooooonnnnnnoooppppo..nnnn.....qqqpppoooooo...
(PID.TID 0000.0001)      1 ..........................................................................................
(PID.TID 0000.0001) // =======================================================
(PID.TID 0000.0001) // END OF FIELD                                          =
(PID.TID 0000.0001) // =======================================================
(PID.TID 0000.0001) 
(PID.TID 0000.0001) Start initial hydrostatic pressure computation
(PID.TID 0000.0001) Pressure is predetermined for buoyancyRelation OCEANIC
(PID.TID 0000.0001) 
(PID.TID 0000.0001)  MDSREADFIELD: opening file: xx_theta.0000000000.001.001.data
(PID.TID 0000.0001)  MDSREADFIELD: opening file: adxx_diffkr.0000000000.001.001.data
(PID.TID 0000.0001)  MDSREADFIELD: opening file: adxx_salt.0000000000.001.001.data
(PID.TID 0000.0001)  MDSREADFIELD: opening file: adxx_theta.0000000000.001.001.data
 ph-pack: packing ecco_cost
(PID.TID 0000.0001)  MDSREADFIELD_GL: opening file: maskCtrlC.001.001.data
(PID.TID 0000.0001)  MDSREADFIELD_GL: opening file: adxx_theta.0000000000.001.001.data
(PID.TID 0000.0001)  MDSREADFIELD_GL: opening file: maskCtrlC.001.001.data
(PID.TID 0000.0001)  MDSREADFIELD_GL: opening file: adxx_salt.0000000000.001.001.data
(PID.TID 0000.0001)  MDSREADFIELD_GL: opening file: maskCtrlC.001.001.data
(PID.TID 0000.0001)  MDSREADFIELD_GL: opening file: adxx_hflux.0000000000.001.001.data
(PID.TID 0000.0001)  MDSREADFIELD_GL: opening file: maskCtrlC.001.001.data
(PID.TID 0000.0001)  MDSREADFIELD_GL: opening file: adxx_sflux.0000000000.001.001.data
(PID.TID 0000.0001)  MDSREADFIELD_GL: opening file: maskCtrlW.001.001.data
(PID.TID 0000.0001)  MDSREADFIELD_GL: opening file: adxx_tauu.0000000000.001.001.data
(PID.TID 0000.0001)  MDSREADFIELD_GL: opening file: maskCtrlS.001.001.data
(PID.TID 0000.0001)  MDSREADFIELD_GL: opening file: adxx_tauv.0000000000.001.001.data
(PID.TID 0000.0001)  MDSREADFIELD_GL: opening file: maskCtrlC.001.001.data
(PID.TID 0000.0001)  MDSREADFIELD_GL: opening file: adxx_diffkr.0000000000.001.001.data
 ph-pack: packing ecco_ctrl
(PID.TID 0000.0001)  MDSREADFIELD_GL: opening file: maskCtrlC.001.001.data
(PID.TID 0000.0001)  MDSREADFIELD_GL: opening file: xx_theta.0000000000.001.001.data
(PID.TID 0000.0001)  MDSREADFIELD_GL: opening file: maskCtrlC.001.001.data
(PID.TID 0000.0001)  MDSREADFIELD_GL: opening file: xx_salt.0000000000.001.001.data
(PID.TID 0000.0001)  MDSREADFIELD_GL: opening file: maskCtrlC.001.001.data
(PID.TID 0000.0001)  MDSREADFIELD_GL: opening file: xx_hflux.0000000000.001.001.data
(PID.TID 0000.0001)  MDSREADFIELD_GL: opening file: maskCtrlC.001.001.data
(PID.TID 0000.0001)  MDSREADFIELD_GL: opening file: xx_sflux.0000000000.001.001.data
(PID.TID 0000.0001)  MDSREADFIELD_GL: opening file: maskCtrlW.001.001.data
(PID.TID 0000.0001)  MDSREADFIELD_GL: opening file: xx_tauu.0000000000.001.001.data
(PID.TID 0000.0001)  MDSREADFIELD_GL: opening file: maskCtrlS.001.001.data
(PID.TID 0000.0001)  MDSREADFIELD_GL: opening file: xx_tauv.0000000000.001.001.data
(PID.TID 0000.0001)  MDSREADFIELD_GL: opening file: maskCtrlC.001.001.data
(PID.TID 0000.0001)  MDSREADFIELD_GL: opening file: xx_diffkr.0000000000.001.001.data
 ph-check entering grdchk_main 
 ph-check fcref =  -0.114865705
 grad-res -------------------------------
 grad-res  proc    #    i    j    k            fc ref        fc + eps        fc - eps
 grad-res  proc    #    i    j    k          adj grad         fd grad      1 - fd/adj
(PID.TID 0000.0001)  MDSREADFIELD: opening file: adxx_theta.0000000000.001.001.data
(PID.TID 0000.0001)  MDSREADFIELD: opening file: xx_theta.0000000000.001.001.data
(PID.TID 0000.0001)  MDSREADFIELD: opening global file: bathymetry.bin
(PID.TID 0000.0001) // =======================================================
(PID.TID 0000.0001) // Field Model R_low (ini_masks_etc) at iteration          1
(PID.TID 0000.0001) // CMIN =         -5.200000000000000E+03
(PID.TID 0000.0001) // CMAX =         -1.200000000000000E+02
(PID.TID 0000.0001) // CINT =          1.881481481481482E+02
(PID.TID 0000.0001) // SYMBOLS (CMIN->CMAX): -abcdefghijklmnopqrstuvwxyz+
(PID.TID 0000.0001) //                  0.0: .
(PID.TID 0000.0001) // RANGE I (Lo:Hi:Step):(  -2:  93:   1)
(PID.TID 0000.0001) // RANGE J (Lo:Hi:Step):(  43:  -2:  -1)
(PID.TID 0000.0001) // RANGE K (Lo:Hi:Step):(   1:   1:   1)
(PID.TID 0000.0001) // =======================================================
(PID.TID 0000.0001) K =   1
(PID.TID 0000.0001) //                I=7       I=17      I=27      I=37      I=47      I=57      I=67      I=77      I=87
(PID.TID 0000.0001) // |--J--|210123456|890123456|890123456|890123456|890123456|890123456|890123456|890123456|890123456|890123
(PID.TID 0000.0001) //     43 ................................................................................................
(PID.TID 0000.0001) //     42 .............................................zyxxmgfeeefefgimnpwwwy..+zyy.....yyyyoiiihhz+......
(PID.TID 0000.0001) //     41 ................................................................................................
(PID.TID 0000.0001) //     40 +qlloqz+.++++zzz++++++..................................................................+++qlloq
(PID.TID 0000.0001) //     39 uslloorzzzzzzzzz+...++.....................................................yxxz........+zvuslloo
(PID.TID 0000.0001) //     38 smqpporzzzzzz+++...........................................................zxxy+......zyyvsmqppo
(PID.TID 0000.0001) //     37 smmmuz..................................................................++...zy+...yttyy.+smmmuz
(PID.TID 0000.0001) //     36 yutt+.........................................mm++....................+++++++znmm.yoowssvuyutt+.
(PID.TID 0000.0001) //     35 w++++.................................+zzz..rrmmkk+...+gghn...........+++....+nmiijlsoopuww++++.
(PID.TID 0000.0001) //     34 +.....................................+vvy.ggqyxv+y.ccdffhim..................+nihhikkihhm+.....
(PID.TID 0000.0001) //     33 w+.....................................uuz---h------aaabdefin+.................zqvddflifffw+....
(PID.TID 0000.0001) //     32 m+.....................................+t----h---------acdfgnn................+++gdffkofffm+....
(PID.TID 0000.0001) //     31 m......................................-----ad--------abddegil..............qbaafccdhqqgddm.....
(PID.TID 0000.0001) //     30 i.....................................f----b--b------------abd............zfbb--fbcdosjfddi.....
(PID.TID 0000.0001) //     29 i...................................tu----e---fjg----------abdf...........eaac--abfmijaadgi.....
(PID.TID 0000.0001) //     28 z.................................+xfl-------------------bdedefi.........qbaa---aemfbbaaejz.....
(PID.TID 0000.0001) //     27 .................xx..............+wfgfpf--------eallc---bbbccefgi...+++x.qb-----akfa---ah.......
(PID.TID 0000.0001) //     26 .................xnn...........+vd---dna------a--aicfna---aabdfghku.++xssuy-----bgca---ci.......
(PID.TID 0000.0001) //     25 .................iiik...oo+...+ivd---doaa-bc--ilglf--aa---aabcghhkll...ssum+xaaacjbaabdjk.......
(PID.TID 0000.0001) //     24 ...............xnheeft.kkk+...uii.aagdm----aa-----a-------bbbcdefjljjju.zummwwbbchba--abi.......
(PID.TID 0000.0001) //     23 ...............xgheefp.iikw...uuw..fihi----fed-----eaaa--bbbbcdfflkjiiiq....zykccefa--abd.......
(PID.TID 0000.0001) //     22 quss...........bbelffslffkk...zz.wqkeeqoheccdfa-----egabaabcdddegghliiiqq......xeeehheehccquss..
(PID.TID 0000.0001) //     21 cbbeir........nbbcdjhqdddiiz.....wqfeelgghmedea-----bibbcddddddefghklnqoo........ieeflhgcccbbeir
(PID.TID 0000.0001) //     20 cbbder.......ldcccdgkccccidd......z.vkkktqqhegg----aaacddddddddefghkiiijl.........nhfa--gfcbbder
(PID.TID 0000.0001) //     19 hcdaaf.......kddosggpaaaibbccx...+z+.....r+nlec---agaaabcddccddefikfgffff...........d---cjhcdaaf
(PID.TID 0000.0001) //     18 hd---d.......kglggvliaaaibbcaaeaiv++...qqzolhecccfdgkaabcdfccdeeikgfgffdd+..........d---djhd---d
(PID.TID 0000.0001) //     17 hc---c.......l.feewlfaaaoaa----aiv.....qqnllslmlofcdbaacceffffhhligfigeddj.........hd---ckhc---c
(PID.TID 0000.0001) //     16 gba--c......tn.ddgnlfdaaqa-----lv.......vnllvllnwv--accivomfffhilhgfffeddjf........re--aeigba--c
(PID.TID 0000.0001) //     15 fb--dpz....+ll.ccdfhmdddlc----av.........otsxoomv---abccddfihgijkhgfffeejfff......+fd---ckfb--dp
(PID.TID 0000.0001) //     14 fc--mcl....weeqbaafilkfend--eagy.........hhstofft----aacdheefijkmjhhjijiffff.....zlfdaaadlfc--mc
(PID.TID 0000.0001) //     13 hcclbbg....nccobaaiddgkffqrqeaal.........eeutqfft------aaceeffhijlkjhhigfffq....+jgfodccflhcclbb
(PID.TID 0000.0001) //     12 hhgaaacw+iiicclemhdddfliigfdcaabfaaaz....ccsurqpc--------abcifffikiiihhggff.....kbbbdfffglhhgaaa
(PID.TID 0000.0001) //     11 kgcaaacbbifccennhbbdefnihgfdccaaaa----..dcccnt.ncab-------aabcdfilhggjiggff....l---abcefjlkgcaaa
(PID.TID 0000.0001) //     10 kfcaaccbdaacfrllfbbdegkmmljhfdddba----d.dcccfx.nyrebaba----abcdgilhfeegijgi..+w--aa-abcfilkfcaac
(PID.TID 0000.0001) //      9 lffcdcccaaaoqsolfdeehikihhlllgfedcccccdmdcccf.vyfaaaaaaaa--abdehmjhfeeefglv.++w-----abcdfklffcdc
(PID.TID 0000.0001) //      8 liffjklcaafddffeeccvznkfffhhhlkjifgjkkfeeddfsyvcaaaaaaccdcccdfgjligedbbceg+.++xffn--cfddefliffjk
(PID.TID 0000.0001) //      7 hmqnnbbkkf--bmbaabbgtykfddeffeeddccdfhlffeelfbaaaaaacddeghgjgjlligeddaaabedfiiiiiisvkfkecchmqnnb
(PID.TID 0000.0001) //      6 cca-------------aabcelttdddedddddccccdfkkiiffbaaaabcdgimmkmefecaaabbbaaabbdfiiiiispmmregifcca---
(PID.TID 0000.0001) //      5 --------a-------aaccehhhiddeddddddcccdfiikomodddefffmlmigedccaaaaaaaababbbdfiijsqgeccccbaa------
(PID.TID 0000.0001) //      4 --ahebaabbbbbeihffgijiiiijpywnnpokkomkiiijmmmolkommmgffeeedccaaaaaabbcccefhmz..yjgeccccbaa--aheb
(PID.TID 0000.0001) //      3 gffhhrpjiiwyy............................yxotmjjjjgfeeeeeeddeffffheddeghjkyy..yqjgeddccdbbgffhhr
(PID.TID 0000.0001) //      2 .............................................zyxxmgfeeefefgimnpwwwy..+zyy.....yyyyoiiihhz+......
(PID.TID 0000.0001) //      1 ................................................................................................
(PID.TID 0000.0001) //      0 +qlloqz+.++++zzz++++++..................................................................+++qlloq
(PID.TID 0000.0001) //     -1 uslloorzzzzzzzzz+...++.....................................................yxxz........+zvuslloo
(PID.TID 0000.0001) //     -2 ................................................................................................
(PID.TID 0000.0001) // =======================================================
(PID.TID 0000.0001) // END OF FIELD                                          =
(PID.TID 0000.0001) // =======================================================
(PID.TID 0000.0001) 
(PID.TID 0000.0001) // =======================================================
(PID.TID 0000.0001) // Field Model Ro_surf (ini_masks_etc) at iteration          1
(PID.TID 0000.0001) // CMIN =          1.000000000000000E+32
(PID.TID 0000.0001) // CMAX =         -1.000000000000000E+32
(PID.TID 0000.0001) // CINT =          0.000000000000000E+00
(PID.TID 0000.0001) // SYMBOLS (CMIN->CMAX): -abcdefghijklmnopqrstuvwxyz+
(PID.TID 0000.0001) //                  0.0: .
(PID.TID 0000.0001) // RANGE I (Lo:Hi:Step):(  -2:  93:   1)
(PID.TID 0000.0001) // RANGE J (Lo:Hi:Step):(  43:  -2:  -1)
(PID.TID 0000.0001) // RANGE K (Lo:Hi:Step):(   1:   1:   1)
(PID.TID 0000.0001) // =======================================================
(PID.TID 0000.0001) // =======================================================
(PID.TID 0000.0001) // END OF FIELD                                          =
(PID.TID 0000.0001) // =======================================================
(PID.TID 0000.0001) 
(PID.TID 0000.0001) // =======================================================
(PID.TID 0000.0001) // Field hFacC at iteration          1
(PID.TID 0000.0001) // CMIN =          1.000000000000000E+00
(PID.TID 0000.0001) // CMAX =          1.000000000000000E+00
(PID.TID 0000.0001) // CINT =          0.000000000000000E+00
(PID.TID 0000.0001) // SYMBOLS (CMIN->CMAX): -abcdefghijklmnopqrstuvwxyz+
(PID.TID 0000.0001) //                  0.0: .
(PID.TID 0000.0001) // RANGE I (Lo:Hi:Step):(  -2:  93:   1)
(PID.TID 0000.0001) // RANGE J (Lo:Hi:Step):(  43:  -2:  -1)
(PID.TID 0000.0001) // RANGE K (Lo:Hi:Step):(   1:   1:   1)
(PID.TID 0000.0001) // =======================================================
(PID.TID 0000.0001) // =======================================================
(PID.TID 0000.0001) // END OF FIELD                                          =
(PID.TID 0000.0001) // =======================================================
(PID.TID 0000.0001) 
(PID.TID 0000.0001) // =======================================================
(PID.TID 0000.0001) // Field hFacW at iteration          1
(PID.TID 0000.0001) // CMIN =          1.000000000000000E+00
(PID.TID 0000.0001) // CMAX =          1.000000000000000E+00
(PID.TID 0000.0001) // CINT =          0.000000000000000E+00
(PID.TID 0000.0001) // SYMBOLS (CMIN->CMAX): -abcdefghijklmnopqrstuvwxyz+
(PID.TID 0000.0001) //                  0.0: .
(PID.TID 0000.0001) // RANGE I (Lo:Hi:Step):(  -2:  93:   1)
(PID.TID 0000.0001) // RANGE J (Lo:Hi:Step):(  43:  -2:  -1)
(PID.TID 0000.0001) // RANGE K (Lo:Hi:Step):(   1:   1:   1)
(PID.TID 0000.0001) // =======================================================
(PID.TID 0000.0001) // =======================================================
(PID.TID 0000.0001) // END OF FIELD                                          =
(PID.TID 0000.0001) // =======================================================
(PID.TID 0000.0001) 
(PID.TID 0000.0001) // =======================================================
(PID.TID 0000.0001) // Field hFacS at iteration          1
(PID.TID 0000.0001) // CMIN =          1.000000000000000E+00
(PID.TID 0000.0001) // CMAX =          1.000000000000000E+00
(PID.TID 0000.0001) // CINT =          0.000000000000000E+00
(PID.TID 0000.0001) // SYMBOLS (CMIN->CMAX): -abcdefghijklmnopqrstuvwxyz+
(PID.TID 0000.0001) //                  0.0: .
(PID.TID 0000.0001) // RANGE I (Lo:Hi:Step):(  -2:  93:   1)
(PID.TID 0000.0001) // RANGE J (Lo:Hi:Step):(  43:  -2:  -1)
(PID.TID 0000.0001) // RANGE K (Lo:Hi:Step):(   1:   1:   1)
(PID.TID 0000.0001) // =======================================================
(PID.TID 0000.0001) // =======================================================
(PID.TID 0000.0001) // END OF FIELD                                          =
(PID.TID 0000.0001) // =======================================================
(PID.TID 0000.0001) 
(PID.TID 0000.0001) %MON ad_advcflfCori_max           =   1.4226580169407E-04
(PID.TID 0000.0001) %MON ad_advcflfCori_min           =  -1.4226580169407E-04
(PID.TID 0000.0001) %MON ad_advcflfCori_mean          =   7.5291817533716E-23
(PID.TID 0000.0001) %MON ad_advcflfCori_sd            =   9.6335367303778E-05
(PID.TID 0000.0001) %MON ad_advcflfCoriG_max          =   1.4112379284621E-04
(PID.TID 0000.0001) %MON ad_advcflfCoriG_min          =  -1.4323448157692E-04
(PID.TID 0000.0001) %MON ad_advcflfCoriG_mean         =  -3.6726790147928E-06
(PID.TID 0000.0001) %MON ad_advcflfCoriG_sd           =   9.7510077443652E-05
(PID.TID 0000.0001) %MON ad_advcflfCoriCos_max        =   1.4535550371427E-04
(PID.TID 0000.0001) %MON ad_advcflfCoriCos_min        =   3.0239529651320E-05
(PID.TID 0000.0001) %MON ad_advcflfCoriCos_mean       =   1.0260497651149E-04
(PID.TID 0000.0001) %MON ad_advcflfCoriCos_sd         =   3.6683828681187E-05
(PID.TID 0000.0001) INI_CG2D: CG2D normalisation factor =  6.5682677425711703E-05
(PID.TID 0000.0001) 
(PID.TID 0000.0001)  MDSREADFIELD: opening global file: lev_t.bin
(PID.TID 0000.0001) // =======================================================
(PID.TID 0000.0001) // Field Initial Temperature at iteration          1
(PID.TID 0000.0001) // CMIN =         -1.900000000000000E+00
(PID.TID 0000.0001) // CMAX =          2.973338890075684E+01
(PID.TID 0000.0001) // CINT =          1.171606996324327E+00
(PID.TID 0000.0001) // SYMBOLS (CMIN->CMAX): -abcdefghijklmnopqrstuvwxyz+
(PID.TID 0000.0001) //                  0.0: .
(PID.TID 0000.0001) // RANGE I (Lo:Hi:Step):(   1:  90:   1)
(PID.TID 0000.0001) // RANGE J (Lo:Hi:Step):(  40:   1:  -1)
(PID.TID 0000.0001) // RANGE K (Lo:Hi:Step):(   1:   1:   1)
(PID.TID 0000.0001) // =======================================================
(PID.TID 0000.0001) K =   1
(PID.TID 0000.0001)                I=10      I=20      I=30      I=40      I=50      I=60      I=70      I=80      I=90
(PID.TID 0000.0001) |--J--|123456789|123456789|123456789|123456789|123456789|123456789|123456789|123456789|123456789|
(PID.TID 0000.0001)     40 bccdd.baa----abdedd..................................................................bbbbb
(PID.TID 0000.0001)     39 ccdddddccbbbaa...ed.....................................................----........bbbbbb
(PID.TID 0000.0001)     38 fffgfedeedddc...........................................................-----......cbbbcde
(PID.TID 0000.0001)     37 ghh..................................................................bc...bbc...edeed.defg
(PID.TID 0000.0001)     36 hh.........................................ddcb....................dcccbabccdd.eefghhihhih
(PID.TID 0000.0001)     35 hh.................................aaab..dddeddd...ffggg...........ccc....ddeeeffghijjjjih
(PID.TID 0000.0001)     34 ...................................babb.deeeeeee.ffffgghh..................ccdffghijkkkj..
(PID.TID 0000.0001)     33 ....................................accdddeeeeefffffgghhiii.................bcfijkkllllkk.
(PID.TID 0000.0001)     32 ....................................bdddeffgffgghhhhhiiijjj................dccglmnmmmmlll.
(PID.TID 0000.0001)     31 ....................................fghiiiijjjjjjkkkkklllkk..............ikkjjmooooonnmm..
(PID.TID 0000.0001)     30 ...................................mmmnmmmmmmmmmmmmmnnnnnmm............moqrrrqrqqqpppooo..
(PID.TID 0000.0001)     29 .................................pqqqqqpppppppppoppoppppponm...........ssssssrrrrrqqqqpp..
(PID.TID 0000.0001)     28 ...............................prssssrrrsssrrrrrrrrrrrrrqqpoo.........uttssstssrssrrrqqq..
(PID.TID 0000.0001)     27 ..............vv..............stuttuuuuutuuuuuuuuuuttttssrrqqq...stuu.vvvuuuuutttttsss....
(PID.TID 0000.0001)     26 ..............vvv...........uuvvvvvwwwwwwwwvvvvvvvvvuuutttsssttv.uuvxxwwwwwwvvvvuuttsr....
(PID.TID 0000.0001)     25 ..............wwwx...xxx...vvvxxxxxyyxxxxxxxxxwwwwwvvvvvuuuuuvwwx...xxxxxxwwwwwwvvutsr....
(PID.TID 0000.0001)     24 ............wwwwxyy.xxyy...wxx.yyyyyyyyyyyxxxxxxxxwwwwwwwvvwwxxyywww.xxxxxxxxxxwwwvvur....
(PID.TID 0000.0001)     23 ............xxxyyyz.xyyy...xxx..yyyyzzyyyyyyyyxxxxxxxxxwwwwwxxxwwwwwx....vwxxxxwwwwwvu....
(PID.TID 0000.0001)     22 w...........xxyyyzyyyyyz...xx.yyzzzzzzzzzzzzzyyzyyyyyyxxwwxxxxwvvvwwxw......yyyyxxxxxxwxxw
(PID.TID 0000.0001)     21 xxx........xxxxyyzzzzzzz+.....zyzzzzzzz++zzzzyyyyyyyyxxwvvwwwwvvvvvvvu........yyyyyyyyyxxx
(PID.TID 0000.0001)     20 xww.......xyyyyxyyzzzzzz+......z.zzzzz+++zzzzzzyyyyyxxxxwvwxwvuuuuuuut.........yyyyxxxxwww
(PID.TID 0000.0001)     19 vvv.......yyyyxwwxyzyyzzzzz...zzz.....++++++z++z+zzzyyyyxxxxwwvvvvvvvu...........yyxxxwwww
(PID.TID 0000.0001)     18 uut.......zzyyywwxyzyyyyzzyzzzzzz...z+z++++zz+++++++zzzyyyyxxwwwvvvvvtt..........yyxxwvvwv
(PID.TID 0000.0001)     17 uus.......z.yyyyyyxyzzyyyyyyyzz.....yzzzzzzzzzzzzzzzzzzyyyyxxwwvuuvvuut.........yyyxxwttvu
(PID.TID 0000.0001)     16 utr......yy.zyyyyxxxxxxxwxxxxy.......yyyyyyyyyyyyyyyyyyyyyyyxxwvvvuuutts........xyyyxwvuuu
(PID.TID 0000.0001)     15 ttrr....xxx.xxxwxwwwwvwwvvvww.........xwxxxxxxxxxxxxxxxxxyyyxwwwvvuttssrr......wxxxxxwwvuu
(PID.TID 0000.0001)     14 ttsq....xyxwwxwvwwwvutuuuuuuu.........wwvwwwwvwvvwwwvwvvwwwwwwvvvuuutssrr.....vwwwwwwwvvvu
(PID.TID 0000.0001)     13 tttr....wwwvvvtttuuuutttssttt.........vvvuuuuuuutttttuuuuuvwwwuuuttttssrr....uvvvvvvvvvvut
(PID.TID 0000.0001)     12 sssssstttutssssrrrrrstrqqrrssqqrrq....uuttssssrrrrrrrrrrrstttssssrssrrqp.....uuuttssttssss
(PID.TID 0000.0001)     11 poprsssrqqqqqrqppooopqpoppppppppppp..sssrrr.rqpppqqqqppppqqqoppqqqqrqqpp....prsrqqqqqppppq
(PID.TID 0000.0001)     10 lllmoooonmnnmnnnnmmmmmmlmmlllmnnnnon.qqqppp.ppppppooooooooonmnnnonnooooo..nmoponnmnnnnnmll
(PID.TID 0000.0001)      9 ihhiiiihhhhhhiiihiiiiihhhiiiijjkkmnllnnnnn.mmmmnnnnmmmmnnmmlklllllklllll.mllmmllkjiijjihhi
(PID.TID 0000.0001)      8 eeeeeeeedefgggffeeffggffffggghiiiijjijklklkkkkkkkklllkkkkjjiiijkjjjjjjkj.kkjjiihggffffedde
(PID.TID 0000.0001)      7 cccccddeedddefeddddddddddefeefffffgggghiiiiiijjjihhgggghhhhhghhhhhhhiiiihiihhgfeddddddcccc
(PID.TID 0000.0001)      6 abbcccddcccccdddddccdddddddccddddddeeeeffggggghhgeddddddeeeeeeefggggghggggffeedccbbbbbbbba
(PID.TID 0000.0001)      5 bbbcccccccccccccccccccccbbccccdddddddcccddeeddeedcbbbbbbccccccdddeeeeeddddddccbbbbaaaaaaab
(PID.TID 0000.0001)      4 bbbbbbbaaabbbbbbbbbbbbaabbabbbbcbbbbbbbbbbbbbbbbbbbabbaaabbbbbbbbbbbbbbbbb..a--aaabbbaaabb
(PID.TID 0000.0001)      3 bbbbaaa-a-............................bbaaaaaaaaaaaaaaaaaaaaaaaaaaaaaaaab..aaaaaaaabbbaaaa
(PID.TID 0000.0001)      2 ..........................................baaaaaaaaaaaa-------aa..aaaa.....aaaaaaaaaaaa...
(PID.TID 0000.0001)      1 ..........................................................................................
(PID.TID 0000.0001) // =======================================================
(PID.TID 0000.0001) // END OF FIELD                                          =
(PID.TID 0000.0001) // =======================================================
(PID.TID 0000.0001) 
(PID.TID 0000.0001)  MDSREADFIELD: opening global file: lev_s.bin
(PID.TID 0000.0001) // =======================================================
(PID.TID 0000.0001) // Field Initial Salinity at iteration          1
(PID.TID 0000.0001) // CMIN =          2.975276947021484E+01
(PID.TID 0000.0001) // CMAX =          3.747562789916992E+01
(PID.TID 0000.0001) // CINT =          2.860317936650029E-01
(PID.TID 0000.0001) // SYMBOLS (CMIN->CMAX): -abcdefghijklmnopqrstuvwxyz+
(PID.TID 0000.0001) //                  0.0: .
(PID.TID 0000.0001) // RANGE I (Lo:Hi:Step):(   1:  90:   1)
(PID.TID 0000.0001) // RANGE J (Lo:Hi:Step):(  40:   1:  -1)
(PID.TID 0000.0001) // RANGE K (Lo:Hi:Step):(   1:   1:   1)
(PID.TID 0000.0001) // =======================================================
(PID.TID 0000.0001) K =   1
(PID.TID 0000.0001)                I=10      I=20      I=30      I=40      I=50      I=60      I=70      I=80      I=90
(PID.TID 0000.0001) |--J--|123456789|123456789|123456789|123456789|123456789|123456789|123456789|123456789|123456789|
(PID.TID 0000.0001)     40 qrrrr.oonnooopqtutt..................................................................mnnop
(PID.TID 0000.0001)     39 rssrrrrrrrqqpn...ut.....................................................mmmm........opqqqr
(PID.TID 0000.0001)     38 ssrrqqqqrrqpo...........................................................lkkll......onoqrrs
(PID.TID 0000.0001)     37 ssr..................................................................hg...lln...qppqr.rrrs
(PID.TID 0000.0001)     36 rr.........................................lkji....................feeegikmoop.pqrssssssss
(PID.TID 0000.0001)     35 rr.................................kkkk..lllllki...jijjj...........aa-....opqrrrrrrrssttss
(PID.TID 0000.0001)     34 ...................................jlll.kklllllk.ijkkkjih..................hlpqrqrrsstts..
(PID.TID 0000.0001)     33 ....................................iklkkkkkkkkkjkkjjjjjjii.................jmprrsstttttt.
(PID.TID 0000.0001)     32 ....................................iklllkllllllllkkkkkkkji................gilpstuuttuuut.
(PID.TID 0000.0001)     31 ....................................lmnonnnnoooonnmmmmllkjj..............loopqtvvvuuuuuu..
(PID.TID 0000.0001)     30 ...................................pppppppqqqqpppoooonnmlkk............ptvxwwvvwvvvvvvvu..
(PID.TID 0000.0001)     29 .................................pqqrqqqqqqrrrqqppqqqpponmll...........vxxxxxxwwwwwxwwxw..
(PID.TID 0000.0001)     28 ...............................prrrrrqqrrrrrsrrsrssssssrqonmm.........wxxxxxxxyyyyyyyyxx..
(PID.TID 0000.0001)     27 ..............xx..............prrrrrrrrrssssssstttssssssrqpoop...uwww.wwxxxyyy++zzzzyy....
(PID.TID 0000.0001)     26 ..............wxx...........ppqrrrrrrsssrrstsstttssrrrrrrrqppqqp.wwwvvwwwwwxyy+++zzyxw....
(PID.TID 0000.0001)     25 ..............wxxv...kkk...ooopqrrrrrssrrrrrrrssssqqpppppppppppoo...vvutuuvvwxyyyxxvvu....
(PID.TID 0000.0001)     24 ............uvvwwur.lmlk...nmm.pqqqqrrrrrqqqqrrqqrpppppooooonmmmnooo.uuuuuuttuvvvuvuut....
(PID.TID 0000.0001)     23 ............vvuvtqp.lmml...mln..ppppqpqppppppqpppppppppqppponnnnnoopm....xvuuuvvvvuuut....
(PID.TID 0000.0001)     22 r...........vuttsqqpnppn...mm.oppqqrrqqqqqqppppqqrrrqqqrrppppoopooomjj......uuvvvvvuttssrr
(PID.TID 0000.0001)     21 qmm........ttsssssssrsqon.....opqqqqqqqrrrrqqqssssssrrrrrrrrpqqqppomll........tvvvvuttssrr
(PID.TID 0000.0001)     20 sqq.......sttssrrsrrrrpol......p.qrqpqrrrrrrrstttttsssrrsssrqrrrrqqqpo.........wwwvvvuuutt
(PID.TID 0000.0001)     19 tsr.......ssssrrrrpppppnmmm...oqq.....qrqqsrrstttuuuttssttssrrssrrrrqq...........wwwvuvvvv
(PID.TID 0000.0001)     18 wut.......ssrrrrrqppppppppoooorrr...poqqqprrrttttuuutuuuuuutttttttutsss..........yyxwwxwxx
(PID.TID 0000.0001)     17 wwu.......s.rrrrrrqppppqqqqqqqr.....rrsrqrsssuusrtuuuvvvwwvvvuuuuutttss.........xyzyyyyxxx
(PID.TID 0000.0001)     16 vvt......ss.qrrssrqrqpqrrrrrrr.......ssrrstsstusrsuuuvwwwwxxwwvvvuttttsr........yz+zzzxwww
(PID.TID 0000.0001)     15 utss....stt.rrssstttsrrsrstsr.........ssstttssttsuuttuvvvvwxwwwwwuttsssrr......xyyyyxyyxwv
(PID.TID 0000.0001)     14 utts....sstrrssstuuuuuuuuuutt.........stttuutttttttuttttttuvvvvvvutsrqrrr.....vxxwwwwxwvwv
(PID.TID 0000.0001)     13 uuut....ttttttttuuuuuvtuuuuuu.........ttttuutttttttuutsssstttttstsqrqqppp....uwwwvuvvvutvv
(PID.TID 0000.0001)     12 ttttttttttttttttttttttssuuuuutuuut....tttttttttttsssssrrrrrrrqqqqqppppoo.....rvvuuttttttuu
(PID.TID 0000.0001)     11 rqsttttttttuuttttsssssrrstttttttsss..ttttts.tsssrrrrqqqqqppppoonnooooooo....oruttttsssrqrs
(PID.TID 0000.0001)     10 pppqrssrqqrqpqrssrrqqqqqqrrrrrrrrrrs.sssssr.rssrrqqpppppppooooonnnoooonn..moqrrrqqqqqqqqqq
(PID.TID 0000.0001)      9 oonooooooooonnnooooooooooppppppqqqqqrrrqrq.pppqqqqqppppppppppoooooooooll.lmoqqqqppooooopoo
(PID.TID 0000.0001)      8 nnnoonooooooonnnnnnnoooonoonoooppopqqqqqqqppopppqqqpppppppppppppppooopon.lnopppoooonnnnooo
(PID.TID 0000.0001)      7 ooooooooooopponnnooooooonnnnnonnooooooooopppppppoooooooooopppppppppoopqnnmnoooonnnonnnnnno
(PID.TID 0000.0001)      6 oooonnoonnnnooooooooooooonnnnnnnnnnnnnnnnoooopppooooooooooooooppppppppppoooooooonnnnnmnnnn
(PID.TID 0000.0001)      5 oooonnnnnnnnnnnnnnnnnoooooonnnnnnonnnnnnnnnoooooooooooonnnnnnooooooopoooonoooonnnnnnnooooo
(PID.TID 0000.0001)      4 oooonnnooonnnnnnnnnnnnnnoooooonnnooooonnnooooooooppponnnnmmmnnnnmnnoonnnnn..nnnooooooooooo
(PID.TID 0000.0001)      3 ooonnnnnnn............................nnoooooonnooooonnnnnnnoonnnnnnnnmmm..ooopooooooooooo
(PID.TID 0000.0001)      2 ..........................................pppooooonnnnnnoooppppo..nnnn.....qqqpppoooooo...
(PID.TID 0000.0001)      1 ..........................................................................................
(PID.TID 0000.0001) // =======================================================
(PID.TID 0000.0001) // END OF FIELD                                          =
(PID.TID 0000.0001) // =======================================================
(PID.TID 0000.0001) 
(PID.TID 0000.0001) Start initial hydrostatic pressure computation
(PID.TID 0000.0001) Pressure is predetermined for buoyancyRelation OCEANIC
(PID.TID 0000.0001) 
(PID.TID 0000.0001)  MDSREADFIELD: opening file: xx_theta.0000000000.001.001.data
(PID.TID 0000.0001)  MDSREADFIELD: opening file: xx_salt.0000000000.001.001.data
(PID.TID 0000.0001)  MDSREADFIELD: opening file: xx_diffkr.0000000000.001.001.data
(PID.TID 0000.0001)  MDSREADFIELD: opening global file: trenberth_taux.bin
(PID.TID 0000.0001)  MDSREADFIELD: opening global file: trenberth_tauy.bin
(PID.TID 0000.0001)  MDSREADFIELD: opening global file: ncep_qnet.bin
(PID.TID 0000.0001)  MDSREADFIELD: opening global file: lev_sst.bin
(PID.TID 0000.0001)  MDSREADFIELD: opening global file: lev_sss.bin
(PID.TID 0000.0001) // =======================================================
(PID.TID 0000.0001) // Model current state
(PID.TID 0000.0001) // =======================================================
(PID.TID 0000.0001) 
S/R EXTERNAL_FIELDS_LOAD: Reading new data:   12    1         0  0.000000000000E+00
(PID.TID 0000.0001)  MDSREADFIELD: opening global file: trenberth_taux.bin
(PID.TID 0000.0001)  MDSREADFIELD: opening global file: trenberth_taux.bin
(PID.TID 0000.0001)  MDSREADFIELD: opening global file: trenberth_tauy.bin
(PID.TID 0000.0001)  MDSREADFIELD: opening global file: trenberth_tauy.bin
(PID.TID 0000.0001)  MDSREADFIELD: opening global file: ncep_qnet.bin
(PID.TID 0000.0001)  MDSREADFIELD: opening global file: ncep_qnet.bin
(PID.TID 0000.0001)  MDSREADFIELD: opening global file: lev_sst.bin
(PID.TID 0000.0001)  MDSREADFIELD: opening global file: lev_sst.bin
(PID.TID 0000.0001)  MDSREADFIELD: opening global file: lev_sss.bin
(PID.TID 0000.0001)  MDSREADFIELD: opening global file: lev_sss.bin
time,SST,SSS,fu,fv,Q,E-P,i0,i1,a,b =   0.0000E+00  5.3151E-02  3.4364E+01 -4.0500E-02 -6.3753E-02  2.6510E+02  0.0000E+00    12     1  5.0000E-01  5.0000E-01
time,fu0,fu1,fu =   0.0000E+00 -4.5368E-02 -3.5633E-02 -4.0500E-02  5.000000000000000E-01  5.000000000000000E-01
(PID.TID 0000.0001)  MDSREADFIELD: opening file: xx_tauu.0000000000.001.001.data
(PID.TID 0000.0001)  MDSREADFIELD: opening file: xx_tauv.0000000000.001.001.data
(PID.TID 0000.0001)  MDSREADFIELD: opening file: xx_sflux.0000000000.001.001.data
(PID.TID 0000.0001)  MDSREADFIELD: opening file: xx_hflux.0000000000.001.001.data
 cg2d: Sum(rhs),rhsMax =  -5.41233724504764E-16  2.53364304519873E+00
time,SST,SSS,fu,fv,Q,E-P,i0,i1,a,b =   4.3200E+04  8.3327E-02  3.4375E+01 -4.0338E-02 -6.3536E-02  2.6512E+02  0.0000E+00    12     1  5.1667E-01  4.8333E-01
time,fu0,fu1,fu =   4.3200E+04 -4.5368E-02 -3.5633E-02 -4.0338E-02  5.166666666666667E-01  4.833333333333333E-01
 cg2d: Sum(rhs),rhsMax =   3.06976666308856E-14  5.05307478634997E+00
time,SST,SSS,fu,fv,Q,E-P,i0,i1,a,b =   8.6400E+04  1.1350E-01  3.4387E+01 -4.0176E-02 -6.3320E-02  2.6514E+02  0.0000E+00    12     1  5.3333E-01  4.6667E-01
time,fu0,fu1,fu =   8.6400E+04 -4.5368E-02 -3.5633E-02 -4.0176E-02  5.333333333333333E-01  4.666666666666667E-01
 cg2d: Sum(rhs),rhsMax =   5.78981307342019E-14  6.32564766002464E+00
time,SST,SSS,fu,fv,Q,E-P,i0,i1,a,b =   1.2960E+05  1.4368E-01  3.4399E+01 -4.0014E-02 -6.3103E-02  2.6516E+02  0.0000E+00    12     1  5.5000E-01  4.5000E-01
time,fu0,fu1,fu =   1.2960E+05 -4.5368E-02 -3.5633E-02 -4.0014E-02  5.500000000000000E-01  4.500000000000000E-01
 cg2d: Sum(rhs),rhsMax =   7.97903410010292E-14  6.76202107413720E+00
time,SST,SSS,fu,fv,Q,E-P,i0,i1,a,b =   1.7280E+05  1.7385E-01  3.4410E+01 -3.9851E-02 -6.2886E-02  2.6519E+02  0.0000E+00    12     1  5.6667E-01  4.3333E-01
time,fu0,fu1,fu =   1.7280E+05 -4.5368E-02 -3.5633E-02 -3.9851E-02  5.666666666666667E-01  4.333333333333333E-01
 cg2d: Sum(rhs),rhsMax =   3.17176840347599E-14  6.91128535917368E+00
time,SST,SSS,fu,fv,Q,E-P,i0,i1,a,b =   2.1600E+05  2.0403E-01  3.4422E+01 -3.9689E-02 -6.2670E-02  2.6521E+02  0.0000E+00    12     1  5.8333E-01  4.1667E-01
time,fu0,fu1,fu =   2.1600E+05 -4.5368E-02 -3.5633E-02 -3.9689E-02  5.833333333333334E-01  4.166666666666666E-01
 cg2d: Sum(rhs),rhsMax =   9.49145276263330E-14  6.96038704691243E+00
time,SST,SSS,fu,fv,Q,E-P,i0,i1,a,b =   2.5920E+05  2.3421E-01  3.4434E+01 -3.9527E-02 -6.2453E-02  2.6523E+02  0.0000E+00    12     1  6.0000E-01  4.0000E-01
time,fu0,fu1,fu =   2.5920E+05 -4.5368E-02 -3.5633E-02 -3.9527E-02  6.000000000000000E-01  4.000000000000000E-01
 cg2d: Sum(rhs),rhsMax =  -1.04014019619569E-13  7.26221759046288E+00
time,SST,SSS,fu,fv,Q,E-P,i0,i1,a,b =   3.0240E+05  2.6438E-01  3.4446E+01 -3.9365E-02 -6.2237E-02  2.6525E+02  0.0000E+00    12     1  6.1667E-01  3.8333E-01
time,fu0,fu1,fu =   3.0240E+05 -4.5368E-02 -3.5633E-02 -3.9365E-02  6.166666666666667E-01  3.833333333333333E-01
 cg2d: Sum(rhs),rhsMax =   7.81484252310172E-14  7.87499194900247E+00
time,SST,SSS,fu,fv,Q,E-P,i0,i1,a,b =   3.4560E+05  2.9456E-01  3.4457E+01 -3.9202E-02 -6.2020E-02  2.6528E+02  0.0000E+00    12     1  6.3333E-01  3.6667E-01
time,fu0,fu1,fu =   3.4560E+05 -4.5368E-02 -3.5633E-02 -3.9202E-02  6.333333333333333E-01  3.666666666666667E-01
 cg2d: Sum(rhs),rhsMax =  -1.04612499218781E-13  8.21213972807563E+00
time,SST,SSS,fu,fv,Q,E-P,i0,i1,a,b =   3.8880E+05  3.2473E-01  3.4469E+01 -3.9040E-02 -6.1804E-02  2.6530E+02  0.0000E+00    12     1  6.5000E-01  3.5000E-01
time,fu0,fu1,fu =   3.8880E+05 -4.5368E-02 -3.5633E-02 -3.9040E-02  6.500000000000000E-01  3.500000000000000E-01
 cg2d: Sum(rhs),rhsMax =  -7.98918223243739E-14  8.31512136376637E+00
time,SST,SSS,fu,fv,Q,E-P,i0,i1,a,b =   4.3200E+05  3.5491E-01  3.4481E+01 -3.8878E-02 -6.1587E-02  2.6532E+02  0.0000E+00    12     1  6.6667E-01  3.3333E-01
time,fu0,fu1,fu =   4.3200E+05 -4.5368E-02 -3.5633E-02 -3.8878E-02  6.666666666666666E-01  3.333333333333334E-01
 cg2d: Sum(rhs),rhsMax =  -6.48522902046977E-13  8.25257067290292E+00
time,SST,SSS,fu,fv,Q,E-P,i0,i1,a,b =   4.7520E+05  3.8508E-01  3.4492E+01 -3.8716E-02 -6.1371E-02  2.6534E+02  0.0000E+00    12     1  6.8333E-01  3.1667E-01
time,fu0,fu1,fu =   4.7520E+05 -4.5368E-02 -3.5633E-02 -3.8716E-02  6.833333333333333E-01  3.166666666666667E-01
 cg2d: Sum(rhs),rhsMax =  -1.00974176936441E-12  8.09293762885827E+00
time,SST,SSS,fu,fv,Q,E-P,i0,i1,a,b =   5.1840E+05  4.1526E-01  3.4504E+01 -3.8553E-02 -6.1154E-02  2.6537E+02  0.0000E+00    12     1  7.0000E-01  3.0000E-01
time,fu0,fu1,fu =   5.1840E+05 -4.5368E-02 -3.5633E-02 -3.8553E-02  7.000000000000000E-01  3.000000000000000E-01
 cg2d: Sum(rhs),rhsMax =  -8.67673120852341E-13  8.55637530605071E+00
time,SST,SSS,fu,fv,Q,E-P,i0,i1,a,b =   5.6160E+05  4.4544E-01  3.4516E+01 -3.8391E-02 -6.0938E-02  2.6539E+02  0.0000E+00    12     1  7.1667E-01  2.8333E-01
time,fu0,fu1,fu =   5.6160E+05 -4.5368E-02 -3.5633E-02 -3.8391E-02  7.166666666666667E-01  2.833333333333333E-01
 cg2d: Sum(rhs),rhsMax =  -9.53523718316696E-13  9.25214403713223E+00
time,SST,SSS,fu,fv,Q,E-P,i0,i1,a,b =   6.0480E+05  4.7561E-01  3.4527E+01 -3.8229E-02 -6.0721E-02  2.6541E+02  0.0000E+00    12     1  7.3333E-01  2.6667E-01
time,fu0,fu1,fu =   6.0480E+05 -4.5368E-02 -3.5633E-02 -3.8229E-02  7.333333333333333E-01  2.666666666666667E-01
 cg2d: Sum(rhs),rhsMax =  -8.17099859995452E-13  9.75412758742914E+00
time,SST,SSS,fu,fv,Q,E-P,i0,i1,a,b =   6.4800E+05  5.0579E-01  3.4539E+01 -3.8067E-02 -6.0505E-02  2.6543E+02  0.0000E+00    12     1  7.5000E-01  2.5000E-01
time,fu0,fu1,fu =   6.4800E+05 -4.5368E-02 -3.5633E-02 -3.8067E-02  7.500000000000000E-01  2.500000000000000E-01
 cg2d: Sum(rhs),rhsMax =  -7.44133921148915E-13  1.00472791850534E+01
time,SST,SSS,fu,fv,Q,E-P,i0,i1,a,b =   6.9120E+05  5.3596E-01  3.4551E+01 -3.7904E-02 -6.0288E-02  2.6546E+02  0.0000E+00    12     1  7.6667E-01  2.3333E-01
time,fu0,fu1,fu =   6.9120E+05 -4.5368E-02 -3.5633E-02 -3.7904E-02  7.666666666666667E-01  2.333333333333333E-01
 cg2d: Sum(rhs),rhsMax =  -1.08077782834393E-12  1.01282964952820E+01
time,SST,SSS,fu,fv,Q,E-P,i0,i1,a,b =   7.3440E+05  5.6614E-01  3.4563E+01 -3.7742E-02 -6.0072E-02  2.6548E+02  0.0000E+00    12     1  7.8333E-01  2.1667E-01
time,fu0,fu1,fu =   7.3440E+05 -4.5368E-02 -3.5633E-02 -3.7742E-02  7.833333333333333E-01  2.166666666666667E-01
 cg2d: Sum(rhs),rhsMax =  -8.15974024459543E-13  1.00066236471318E+01
time,SST,SSS,fu,fv,Q,E-P,i0,i1,a,b =   7.7760E+05  5.9632E-01  3.4574E+01 -3.7580E-02 -5.9855E-02  2.6550E+02  0.0000E+00    12     1  8.0000E-01  2.0000E-01
time,fu0,fu1,fu =   7.7760E+05 -4.5368E-02 -3.5633E-02 -3.7580E-02  8.000000000000000E-01  2.000000000000000E-01
 cg2d: Sum(rhs),rhsMax =  -7.10776923429357E-13  9.70409645616990E+00
time,SST,SSS,fu,fv,Q,E-P,i0,i1,a,b =   8.2080E+05  6.2649E-01  3.4586E+01 -3.7418E-02 -5.9638E-02  2.6552E+02  0.0000E+00    12     1  8.1667E-01  1.8333E-01
time,fu0,fu1,fu =   8.2080E+05 -4.5368E-02 -3.5633E-02 -3.7418E-02  8.166666666666667E-01  1.833333333333333E-01
 cg2d: Sum(rhs),rhsMax =  -1.44098274978965E-12  9.47667283577992E+00
time,SST,SSS,fu,fv,Q,E-P,i0,i1,a,b =   8.6400E+05  6.5667E-01  3.4598E+01 -3.7255E-02 -5.9422E-02  2.6555E+02  0.0000E+00    12     1  8.3333E-01  1.6667E-01
time,fu0,fu1,fu =   8.6400E+05 -4.5368E-02 -3.5633E-02 -3.7255E-02  8.333333333333334E-01  1.666666666666666E-01
 cg2d: Sum(rhs),rhsMax =  -8.05447722407315E-13  1.03748401635906E+01
time,SST,SSS,fu,fv,Q,E-P,i0,i1,a,b =   9.0720E+05  6.8684E-01  3.4609E+01 -3.7093E-02 -5.9205E-02  2.6557E+02  0.0000E+00    12     1  8.5000E-01  1.5000E-01
time,fu0,fu1,fu =   9.0720E+05 -4.5368E-02 -3.5633E-02 -3.7093E-02  8.500000000000000E-01  1.500000000000000E-01
 cg2d: Sum(rhs),rhsMax =  -1.10250697460401E-12  1.11482726022284E+01
time,SST,SSS,fu,fv,Q,E-P,i0,i1,a,b =   9.5040E+05  7.1702E-01  3.4621E+01 -3.6931E-02 -5.8989E-02  2.6559E+02  0.0000E+00    12     1  8.6667E-01  1.3333E-01
time,fu0,fu1,fu =   9.5040E+05 -4.5368E-02 -3.5633E-02 -3.6931E-02  8.666666666666667E-01  1.333333333333333E-01
 cg2d: Sum(rhs),rhsMax =  -6.54816478817821E-13  1.17644190526972E+01
time,SST,SSS,fu,fv,Q,E-P,i0,i1,a,b =   9.9360E+05  7.4719E-01  3.4633E+01 -3.6769E-02 -5.8772E-02  2.6561E+02  0.0000E+00    12     1  8.8333E-01  1.1667E-01
time,fu0,fu1,fu =   9.9360E+05 -4.5368E-02 -3.5633E-02 -3.6769E-02  8.833333333333333E-01  1.166666666666667E-01
 cg2d: Sum(rhs),rhsMax =  -9.14143760688546E-13  1.21959720875389E+01
time,SST,SSS,fu,fv,Q,E-P,i0,i1,a,b =   1.0368E+06  7.7737E-01  3.4644E+01 -3.6606E-02 -5.8556E-02  2.6564E+02  0.0000E+00    12     1  9.0000E-01  1.0000E-01
time,fu0,fu1,fu =   1.0368E+06 -4.5368E-02 -3.5633E-02 -3.6606E-02  9.000000000000000E-01  9.999999999999998E-02
 cg2d: Sum(rhs),rhsMax =  -1.04993444494106E-12  1.24221987652328E+01
time,SST,SSS,fu,fv,Q,E-P,i0,i1,a,b =   1.0800E+06  8.0755E-01  3.4656E+01 -3.6444E-02 -5.8339E-02  2.6566E+02  0.0000E+00    12     1  9.1667E-01  8.3333E-02
time,fu0,fu1,fu =   1.0800E+06 -4.5368E-02 -3.5633E-02 -3.6444E-02  9.166666666666666E-01  8.333333333333337E-02
 cg2d: Sum(rhs),rhsMax =  -8.64761387497914E-13  1.24298971530992E+01
time,SST,SSS,fu,fv,Q,E-P,i0,i1,a,b =   1.1232E+06  8.3772E-01  3.4668E+01 -3.6282E-02 -5.8123E-02  2.6568E+02  0.0000E+00    12     1  9.3333E-01  6.6667E-02
time,fu0,fu1,fu =   1.1232E+06 -4.5368E-02 -3.5633E-02 -3.6282E-02  9.333333333333333E-01  6.666666666666665E-02
 cg2d: Sum(rhs),rhsMax =  -8.25887969124750E-13  1.22139653314085E+01
time,SST,SSS,fu,fv,Q,E-P,i0,i1,a,b =   1.1664E+06  8.6790E-01  3.4679E+01 -3.6120E-02 -5.7906E-02  2.6570E+02  0.0000E+00    12     1  9.5000E-01  5.0000E-02
time,fu0,fu1,fu =   1.1664E+06 -4.5368E-02 -3.5633E-02 -3.6120E-02  9.500000000000000E-01  5.000000000000004E-02
 cg2d: Sum(rhs),rhsMax =  -8.79071121451247E-13  1.17775992284494E+01
time,SST,SSS,fu,fv,Q,E-P,i0,i1,a,b =   1.2096E+06  8.9807E-01  3.4691E+01 -3.5957E-02 -5.7690E-02  2.6573E+02  0.0000E+00    12     1  9.6667E-01  3.3333E-02
time,fu0,fu1,fu =   1.2096E+06 -4.5368E-02 -3.5633E-02 -3.5957E-02  9.666666666666667E-01  3.333333333333333E-02
 cg2d: Sum(rhs),rhsMax =  -8.67771132728734E-13  1.11321543546077E+01
time,SST,SSS,fu,fv,Q,E-P,i0,i1,a,b =   1.2528E+06  9.2825E-01  3.4703E+01 -3.5795E-02 -5.7473E-02  2.6575E+02  0.0000E+00    12     1  9.8333E-01  1.6667E-02
time,fu0,fu1,fu =   1.2528E+06 -4.5368E-02 -3.5633E-02 -3.5795E-02  9.833333333333333E-01  1.666666666666672E-02
 cg2d: Sum(rhs),rhsMax =  -1.56669122119979E-12  1.02967139421230E+01
S/R EXTERNAL_FIELDS_LOAD: Reading new data:    1    2        30  1.296000000000E+06
(PID.TID 0000.0001)  MDSREADFIELD: opening global file: trenberth_taux.bin
(PID.TID 0000.0001)  MDSREADFIELD: opening global file: trenberth_taux.bin
(PID.TID 0000.0001)  MDSREADFIELD: opening global file: trenberth_tauy.bin
(PID.TID 0000.0001)  MDSREADFIELD: opening global file: trenberth_tauy.bin
(PID.TID 0000.0001)  MDSREADFIELD: opening global file: ncep_qnet.bin
(PID.TID 0000.0001)  MDSREADFIELD: opening global file: ncep_qnet.bin
(PID.TID 0000.0001)  MDSREADFIELD: opening global file: lev_sst.bin
(PID.TID 0000.0001)  MDSREADFIELD: opening global file: lev_sst.bin
(PID.TID 0000.0001)  MDSREADFIELD: opening global file: lev_sss.bin
(PID.TID 0000.0001)  MDSREADFIELD: opening global file: lev_sss.bin
time,SST,SSS,fu,fv,Q,E-P,i0,i1,a,b =   1.2960E+06  9.5843E-01  3.4715E+01 -3.5633E-02 -5.7257E-02  2.6577E+02  0.0000E+00     1     2  0.0000E+00  1.0000E+00
time,fu0,fu1,fu =   1.2960E+06 -3.5633E-02 -1.4435E-02 -3.5633E-02  0.000000000000000E+00  1.000000000000000E+00
 cg2d: Sum(rhs),rhsMax =  -1.21545482012486E-12  9.29740447793334E+00
time,SST,SSS,fu,fv,Q,E-P,i0,i1,a,b =   1.3392E+06  9.3359E-01  3.4710E+01 -3.5280E-02 -5.6596E-02  2.6535E+02  0.0000E+00     1     2  1.6667E-02  9.8333E-01
time,fu0,fu1,fu =   1.3392E+06 -3.5633E-02 -1.4435E-02 -3.5280E-02  1.666666666666667E-02  9.833333333333333E-01
 cg2d: Sum(rhs),rhsMax =  -9.86231929456238E-13  9.11143478781242E+00
time,SST,SSS,fu,fv,Q,E-P,i0,i1,a,b =   1.3824E+06  9.0875E-01  3.4705E+01 -3.4926E-02 -5.5936E-02  2.6493E+02  0.0000E+00     1     2  3.3333E-02  9.6667E-01
time,fu0,fu1,fu =   1.3824E+06 -3.5633E-02 -1.4435E-02 -3.4926E-02  3.333333333333333E-02  9.666666666666667E-01
 cg2d: Sum(rhs),rhsMax =  -1.67589553345948E-12  9.23484280230285E+00
time,SST,SSS,fu,fv,Q,E-P,i0,i1,a,b =   1.4256E+06  8.8391E-01  3.4700E+01 -3.4573E-02 -5.5276E-02  2.6451E+02  0.0000E+00     1     2  5.0000E-02  9.5000E-01
time,fu0,fu1,fu =   1.4256E+06 -3.5633E-02 -1.4435E-02 -3.4573E-02  5.000000000000000E-02  9.500000000000000E-01
 cg2d: Sum(rhs),rhsMax =  -1.40027572870238E-12  9.27184049069620E+00
time,SST,SSS,fu,fv,Q,E-P,i0,i1,a,b =   1.4688E+06  8.5907E-01  3.4695E+01 -3.4220E-02 -5.4615E-02  2.6408E+02  0.0000E+00     1     2  6.6667E-02  9.3333E-01
time,fu0,fu1,fu =   1.4688E+06 -3.5633E-02 -1.4435E-02 -3.4220E-02  6.666666666666667E-02  9.333333333333333E-01
 cg2d: Sum(rhs),rhsMax =  -1.11234632615975E-12  9.21972025558462E+00
time,SST,SSS,fu,fv,Q,E-P,i0,i1,a,b =   1.5120E+06  8.3424E-01  3.4690E+01 -3.3866E-02 -5.3955E-02  2.6366E+02  0.0000E+00     1     2  8.3333E-02  9.1667E-01
time,fu0,fu1,fu =   1.5120E+06 -3.5633E-02 -1.4435E-02 -3.3866E-02  8.333333333333333E-02  9.166666666666666E-01
 cg2d: Sum(rhs),rhsMax =  -8.34068925037457E-13  9.07797463257815E+00
time,SST,SSS,fu,fv,Q,E-P,i0,i1,a,b =   1.5552E+06  8.0940E-01  3.4685E+01 -3.3513E-02 -5.3295E-02  2.6324E+02  0.0000E+00     1     2  1.0000E-01  9.0000E-01
time,fu0,fu1,fu =   1.5552E+06 -3.5633E-02 -1.4435E-02 -3.3513E-02  1.000000000000000E-01  9.000000000000000E-01
 cg2d: Sum(rhs),rhsMax =  -8.70907512773300E-13  8.84823874589379E+00
time,SST,SSS,fu,fv,Q,E-P,i0,i1,a,b =   1.5984E+06  7.8456E-01  3.4680E+01 -3.3160E-02 -5.2634E-02  2.6282E+02  0.0000E+00     1     2  1.1667E-01  8.8333E-01
time,fu0,fu1,fu =   1.5984E+06 -3.5633E-02 -1.4435E-02 -3.3160E-02  1.166666666666667E-01  8.833333333333333E-01
 cg2d: Sum(rhs),rhsMax =  -6.24576779184594E-13  8.53412703082459E+00
time,SST,SSS,fu,fv,Q,E-P,i0,i1,a,b =   1.6416E+06  7.5972E-01  3.4675E+01 -3.2807E-02 -5.1974E-02  2.6240E+02  0.0000E+00     1     2  1.3333E-01  8.6667E-01
time,fu0,fu1,fu =   1.6416E+06 -3.5633E-02 -1.4435E-02 -3.2807E-02  1.333333333333333E-01  8.666666666666667E-01
 cg2d: Sum(rhs),rhsMax =  -1.08458381165022E-12  8.14100359191200E+00
time,SST,SSS,fu,fv,Q,E-P,i0,i1,a,b =   1.6848E+06  7.3488E-01  3.4671E+01 -3.2453E-02 -5.1313E-02  2.6198E+02  0.0000E+00     1     2  1.5000E-01  8.5000E-01
time,fu0,fu1,fu =   1.6848E+06 -3.5633E-02 -1.4435E-02 -3.2453E-02  1.500000000000000E-01  8.500000000000000E-01
 cg2d: Sum(rhs),rhsMax =  -7.02903013571898E-13  7.67572500462244E+00
time,SST,SSS,fu,fv,Q,E-P,i0,i1,a,b =   1.7280E+06  7.1005E-01  3.4666E+01 -3.2100E-02 -5.0653E-02  2.6156E+02  0.0000E+00     1     2  1.6667E-01  8.3333E-01
time,fu0,fu1,fu =   1.7280E+06 -3.5633E-02 -1.4435E-02 -3.2100E-02  1.666666666666667E-01  8.333333333333334E-01
 cg2d: Sum(rhs),rhsMax =  -4.90357754401316E-13  7.14638712858150E+00
time,SST,SSS,fu,fv,Q,E-P,i0,i1,a,b =   1.7712E+06  6.8521E-01  3.4661E+01 -3.1747E-02 -4.9993E-02  2.6113E+02  0.0000E+00     1     2  1.8333E-01  8.1667E-01
time,fu0,fu1,fu =   1.7712E+06 -3.5633E-02 -1.4435E-02 -3.1747E-02  1.833333333333333E-01  8.166666666666667E-01
 cg2d: Sum(rhs),rhsMax =  -4.91058582685611E-13  7.16032442587445E+00
time,SST,SSS,fu,fv,Q,E-P,i0,i1,a,b =   1.8144E+06  6.6037E-01  3.4656E+01 -3.1393E-02 -4.9332E-02  2.6071E+02  0.0000E+00     1     2  2.0000E-01  8.0000E-01
time,fu0,fu1,fu =   1.8144E+06 -3.5633E-02 -1.4435E-02 -3.1393E-02  2.000000000000000E-01  8.000000000000000E-01
 cg2d: Sum(rhs),rhsMax =  -2.24653629032900E-13  7.19604410604347E+00
time,SST,SSS,fu,fv,Q,E-P,i0,i1,a,b =   1.8576E+06  6.3553E-01  3.4651E+01 -3.1040E-02 -4.8672E-02  2.6029E+02  0.0000E+00     1     2  2.1667E-01  7.8333E-01
time,fu0,fu1,fu =   1.8576E+06 -3.5633E-02 -1.4435E-02 -3.1040E-02  2.166666666666667E-01  7.833333333333333E-01
 cg2d: Sum(rhs),rhsMax =  -3.99937027939501E-13  7.21623308450012E+00
time,SST,SSS,fu,fv,Q,E-P,i0,i1,a,b =   1.9008E+06  6.1069E-01  3.4646E+01 -3.0687E-02 -4.8012E-02  2.5987E+02  0.0000E+00     1     2  2.3333E-01  7.6667E-01
time,fu0,fu1,fu =   1.9008E+06 -3.5633E-02 -1.4435E-02 -3.0687E-02  2.333333333333333E-01  7.666666666666666E-01
 cg2d: Sum(rhs),rhsMax =  -4.77395900588817E-14  7.36407412157297E+00
time,SST,SSS,fu,fv,Q,E-P,i0,i1,a,b =   1.9440E+06  5.8585E-01  3.4641E+01 -3.0333E-02 -4.7351E-02  2.5945E+02  0.0000E+00     1     2  2.5000E-01  7.5000E-01
time,fu0,fu1,fu =   1.9440E+06 -3.5633E-02 -1.4435E-02 -3.0333E-02  2.500000000000000E-01  7.500000000000000E-01
 cg2d: Sum(rhs),rhsMax =  -2.45983788893511E-13  7.63411969891389E+00
time,SST,SSS,fu,fv,Q,E-P,i0,i1,a,b =   1.9872E+06  5.6102E-01  3.4636E+01 -2.9980E-02 -4.6691E-02  2.5903E+02  0.0000E+00     1     2  2.6667E-01  7.3333E-01
time,fu0,fu1,fu =   1.9872E+06 -3.5633E-02 -1.4435E-02 -2.9980E-02  2.666666666666667E-01  7.333333333333334E-01
 cg2d: Sum(rhs),rhsMax =  -5.03243280380872E-13  7.83757941427557E+00
time,SST,SSS,fu,fv,Q,E-P,i0,i1,a,b =   2.0304E+06  5.3618E-01  3.4631E+01 -2.9627E-02 -4.6031E-02  2.5861E+02  0.0000E+00     1     2  2.8333E-01  7.1667E-01
time,fu0,fu1,fu =   2.0304E+06 -3.5633E-02 -1.4435E-02 -2.9627E-02  2.833333333333333E-01  7.166666666666667E-01
 cg2d: Sum(rhs),rhsMax =  -1.46799239431061E-13  7.97661618523109E+00
time,SST,SSS,fu,fv,Q,E-P,i0,i1,a,b =   2.0736E+06  5.1134E-01  3.4627E+01 -2.9273E-02 -4.5370E-02  2.5818E+02  0.0000E+00     1     2  3.0000E-01  7.0000E-01
time,fu0,fu1,fu =   2.0736E+06 -3.5633E-02 -1.4435E-02 -2.9273E-02  3.000000000000000E-01  7.000000000000000E-01
 cg2d: Sum(rhs),rhsMax =   5.34072785995932E-13  8.05769496589381E+00
time,SST,SSS,fu,fv,Q,E-P,i0,i1,a,b =   2.1168E+06  4.8650E-01  3.4622E+01 -2.8920E-02 -4.4710E-02  2.5776E+02  0.0000E+00     1     2  3.1667E-01  6.8333E-01
time,fu0,fu1,fu =   2.1168E+06 -3.5633E-02 -1.4435E-02 -2.8920E-02  3.166666666666667E-01  6.833333333333333E-01
 cg2d: Sum(rhs),rhsMax =   3.30714622354122E-13  8.09041663266680E+00
time,SST,SSS,fu,fv,Q,E-P,i0,i1,a,b =   2.1600E+06  4.6166E-01  3.4617E+01 -2.8567E-02 -4.4050E-02  2.5734E+02  0.0000E+00     1     2  3.3333E-01  6.6667E-01
time,fu0,fu1,fu =   2.1600E+06 -3.5633E-02 -1.4435E-02 -2.8567E-02  3.333333333333333E-01  6.666666666666667E-01
 cg2d: Sum(rhs),rhsMax =   2.99107960621825E-13  8.08616408049314E+00
time,SST,SSS,fu,fv,Q,E-P,i0,i1,a,b =   2.2032E+06  4.3683E-01  3.4612E+01 -2.8214E-02 -4.3389E-02  2.5692E+02  0.0000E+00     1     2  3.5000E-01  6.5000E-01
time,fu0,fu1,fu =   2.2032E+06 -3.5633E-02 -1.4435E-02 -2.8214E-02  3.500000000000000E-01  6.500000000000000E-01
 cg2d: Sum(rhs),rhsMax =   6.00977601017405E-14  8.05674081750532E+00
time,SST,SSS,fu,fv,Q,E-P,i0,i1,a,b =   2.2464E+06  4.1199E-01  3.4607E+01 -2.7860E-02 -4.2729E-02  2.5650E+02  0.0000E+00     1     2  3.6667E-01  6.3333E-01
time,fu0,fu1,fu =   2.2464E+06 -3.5633E-02 -1.4435E-02 -2.7860E-02  3.666666666666666E-01  6.333333333333333E-01
 cg2d: Sum(rhs),rhsMax =   3.03750080643539E-13  8.18299872245690E+00
time,SST,SSS,fu,fv,Q,E-P,i0,i1,a,b =   2.2896E+06  3.8715E-01  3.4602E+01 -2.7507E-02 -4.2069E-02  2.5608E+02  0.0000E+00     1     2  3.8333E-01  6.1667E-01
time,fu0,fu1,fu =   2.2896E+06 -3.5633E-02 -1.4435E-02 -2.7507E-02  3.833333333333334E-01  6.166666666666667E-01
 cg2d: Sum(rhs),rhsMax =   5.51905743328973E-13  9.40876931285425E+00
time,SST,SSS,fu,fv,Q,E-P,i0,i1,a,b =   2.3328E+06  3.6231E-01  3.4597E+01 -2.7154E-02 -4.1408E-02  2.5565E+02  0.0000E+00     1     2  4.0000E-01  6.0000E-01
time,fu0,fu1,fu =   2.3328E+06 -3.5633E-02 -1.4435E-02 -2.7154E-02  4.000000000000000E-01  6.000000000000000E-01
 cg2d: Sum(rhs),rhsMax =   7.63243634960276E-13  1.05293276707075E+01
time,SST,SSS,fu,fv,Q,E-P,i0,i1,a,b =   2.3760E+06  3.3747E-01  3.4592E+01 -2.6800E-02 -4.0748E-02  2.5523E+02  0.0000E+00     1     2  4.1667E-01  5.8333E-01
time,fu0,fu1,fu =   2.3760E+06 -3.5633E-02 -1.4435E-02 -2.6800E-02  4.166666666666667E-01  5.833333333333333E-01
 cg2d: Sum(rhs),rhsMax =   7.58192120198231E-13  1.15144709862056E+01
time,SST,SSS,fu,fv,Q,E-P,i0,i1,a,b =   2.4192E+06  3.1264E-01  3.4587E+01 -2.6447E-02 -4.0088E-02  2.5481E+02  0.0000E+00     1     2  4.3333E-01  5.6667E-01
time,fu0,fu1,fu =   2.4192E+06 -3.5633E-02 -1.4435E-02 -2.6447E-02  4.333333333333333E-01  5.666666666666667E-01
 cg2d: Sum(rhs),rhsMax =   1.44068784679874E-12  1.23395341393442E+01
time,SST,SSS,fu,fv,Q,E-P,i0,i1,a,b =   2.4624E+06  2.8780E-01  3.4582E+01 -2.6094E-02 -3.9427E-02  2.5439E+02  0.0000E+00     1     2  4.5000E-01  5.5000E-01
time,fu0,fu1,fu =   2.4624E+06 -3.5633E-02 -1.4435E-02 -2.6094E-02  4.500000000000000E-01  5.500000000000000E-01
 cg2d: Sum(rhs),rhsMax =   2.03893846251191E-12  1.29859652914571E+01
time,SST,SSS,fu,fv,Q,E-P,i0,i1,a,b =   2.5056E+06  2.6296E-01  3.4578E+01 -2.5740E-02 -3.8767E-02  2.5397E+02  0.0000E+00     1     2  4.6667E-01  5.3333E-01
time,fu0,fu1,fu =   2.5056E+06 -3.5633E-02 -1.4435E-02 -2.5740E-02  4.666666666666667E-01  5.333333333333333E-01
 cg2d: Sum(rhs),rhsMax =   2.03490696515374E-12  1.34416460412702E+01
time,SST,SSS,fu,fv,Q,E-P,i0,i1,a,b =   2.5488E+06  2.3812E-01  3.4573E+01 -2.5387E-02 -3.8106E-02  2.5355E+02  0.0000E+00     1     2  4.8333E-01  5.1667E-01
time,fu0,fu1,fu =   2.5488E+06 -3.5633E-02 -1.4435E-02 -2.5387E-02  4.833333333333333E-01  5.166666666666666E-01
 cg2d: Sum(rhs),rhsMax =   2.45849868241166E-12  1.37009638952054E+01
time,SST,SSS,fu,fv,Q,E-P,i0,i1,a,b =   2.5920E+06  2.1328E-01  3.4568E+01 -2.5034E-02 -3.7446E-02  2.5313E+02  0.0000E+00     1     2  5.0000E-01  5.0000E-01
time,fu0,fu1,fu =   2.5920E+06 -3.5633E-02 -1.4435E-02 -2.5034E-02  5.000000000000000E-01  5.000000000000000E-01
 cg2d: Sum(rhs),rhsMax =   2.61999449913120E-12  1.37646537675297E+01
time,SST,SSS,fu,fv,Q,E-P,i0,i1,a,b =   2.6352E+06  1.8845E-01  3.4563E+01 -2.4681E-02 -3.6786E-02  2.5270E+02  0.0000E+00     1     2  5.1667E-01  4.8333E-01
time,fu0,fu1,fu =   2.6352E+06 -3.5633E-02 -1.4435E-02 -2.4681E-02  5.166666666666667E-01  4.833333333333333E-01
 cg2d: Sum(rhs),rhsMax =   2.56180493485303E-12  1.36394322886015E+01
time,SST,SSS,fu,fv,Q,E-P,i0,i1,a,b =   2.6784E+06  1.6361E-01  3.4558E+01 -2.4327E-02 -3.6125E-02  2.5228E+02  0.0000E+00     1     2  5.3333E-01  4.6667E-01
time,fu0,fu1,fu =   2.6784E+06 -3.5633E-02 -1.4435E-02 -2.4327E-02  5.333333333333333E-01  4.666666666666667E-01
 cg2d: Sum(rhs),rhsMax =   2.85181600556683E-12  1.33374539204968E+01
time,SST,SSS,fu,fv,Q,E-P,i0,i1,a,b =   2.7216E+06  1.3877E-01  3.4553E+01 -2.3974E-02 -3.5465E-02  2.5186E+02  0.0000E+00     1     2  5.5000E-01  4.5000E-01
time,fu0,fu1,fu =   2.7216E+06 -3.5633E-02 -1.4435E-02 -2.3974E-02  5.500000000000000E-01  4.500000000000000E-01
 cg2d: Sum(rhs),rhsMax =   3.29157534562086E-12  1.28756214077096E+01
time,SST,SSS,fu,fv,Q,E-P,i0,i1,a,b =   2.7648E+06  1.1393E-01  3.4548E+01 -2.3621E-02 -3.4805E-02  2.5144E+02  0.0000E+00     1     2  5.6667E-01  4.3333E-01
time,fu0,fu1,fu =   2.7648E+06 -3.5633E-02 -1.4435E-02 -2.3621E-02  5.666666666666667E-01  4.333333333333333E-01
 cg2d: Sum(rhs),rhsMax =   3.41870282083434E-12  1.22747851122305E+01
time,SST,SSS,fu,fv,Q,E-P,i0,i1,a,b =   2.8080E+06  8.9094E-02  3.4543E+01 -2.3267E-02 -3.4144E-02  2.5102E+02  0.0000E+00     1     2  5.8333E-01  4.1667E-01
time,fu0,fu1,fu =   2.8080E+06 -3.5633E-02 -1.4435E-02 -2.3267E-02  5.833333333333334E-01  4.166666666666666E-01
 cg2d: Sum(rhs),rhsMax =   3.70641711766595E-12  1.15588664831698E+01
time,SST,SSS,fu,fv,Q,E-P,i0,i1,a,b =   2.8512E+06  6.4256E-02  3.4538E+01 -2.2914E-02 -3.3484E-02  2.5060E+02  0.0000E+00     1     2  6.0000E-01  4.0000E-01
time,fu0,fu1,fu =   2.8512E+06 -3.5633E-02 -1.4435E-02 -2.2914E-02  6.000000000000000E-01  4.000000000000000E-01
 cg2d: Sum(rhs),rhsMax =   3.44643064087435E-12  1.07539404568680E+01
time,SST,SSS,fu,fv,Q,E-P,i0,i1,a,b =   2.8944E+06  3.9418E-02  3.4534E+01 -2.2561E-02 -3.2824E-02  2.5018E+02  0.0000E+00     1     2  6.1667E-01  3.8333E-01
time,fu0,fu1,fu =   2.8944E+06 -3.5633E-02 -1.4435E-02 -2.2561E-02  6.166666666666667E-01  3.833333333333333E-01
 cg2d: Sum(rhs),rhsMax =   3.22132598373770E-12  9.88731011361942E+00
time,SST,SSS,fu,fv,Q,E-P,i0,i1,a,b =   2.9376E+06  1.4580E-02  3.4529E+01 -2.2207E-02 -3.2163E-02  2.4975E+02  0.0000E+00     1     2  6.3333E-01  3.6667E-01
time,fu0,fu1,fu =   2.9376E+06 -3.5633E-02 -1.4435E-02 -2.2207E-02  6.333333333333333E-01  3.666666666666667E-01
 cg2d: Sum(rhs),rhsMax =   3.32062155550261E-12  8.98660455023796E+00
time,SST,SSS,fu,fv,Q,E-P,i0,i1,a,b =   2.9808E+06 -1.0258E-02  3.4524E+01 -2.1854E-02 -3.1503E-02  2.4933E+02  0.0000E+00     1     2  6.5000E-01  3.5000E-01
time,fu0,fu1,fu =   2.9808E+06 -3.5633E-02 -1.4435E-02 -2.1854E-02  6.500000000000000E-01  3.500000000000000E-01
 cg2d: Sum(rhs),rhsMax =   3.82152642863787E-12  8.07892777323990E+00
time,SST,SSS,fu,fv,Q,E-P,i0,i1,a,b =   3.0240E+06 -3.5096E-02  3.4519E+01 -2.1501E-02 -3.0843E-02  2.4891E+02  0.0000E+00     1     2  6.6667E-01  3.3333E-01
time,fu0,fu1,fu =   3.0240E+06 -3.5633E-02 -1.4435E-02 -2.1501E-02  6.666666666666666E-01  3.333333333333334E-01
 cg2d: Sum(rhs),rhsMax =   3.65094066090421E-12  7.98205083736768E+00
time,SST,SSS,fu,fv,Q,E-P,i0,i1,a,b =   3.0672E+06 -5.9934E-02  3.4514E+01 -2.1147E-02 -3.0182E-02  2.4849E+02  0.0000E+00     1     2  6.8333E-01  3.1667E-01
time,fu0,fu1,fu =   3.0672E+06 -3.5633E-02 -1.4435E-02 -2.1147E-02  6.833333333333333E-01  3.166666666666667E-01
 cg2d: Sum(rhs),rhsMax =   3.21399851177517E-12  8.00388390172107E+00
time,SST,SSS,fu,fv,Q,E-P,i0,i1,a,b =   3.1104E+06 -8.4772E-02  3.4509E+01 -2.0794E-02 -2.9522E-02  2.4807E+02  0.0000E+00     1     2  7.0000E-01  3.0000E-01
time,fu0,fu1,fu =   3.1104E+06 -3.5633E-02 -1.4435E-02 -2.0794E-02  7.000000000000000E-01  3.000000000000000E-01
 cg2d: Sum(rhs),rhsMax =   3.10992898100437E-12  8.02911766220560E+00
time,SST,SSS,fu,fv,Q,E-P,i0,i1,a,b =   3.1536E+06 -1.0961E-01  3.4504E+01 -2.0441E-02 -2.8862E-02  2.4765E+02  0.0000E+00     1     2  7.1667E-01  2.8333E-01
time,fu0,fu1,fu =   3.1536E+06 -3.5633E-02 -1.4435E-02 -2.0441E-02  7.166666666666667E-01  2.833333333333333E-01
 cg2d: Sum(rhs),rhsMax =   2.95973662245430E-12  8.49105071224346E+00
time,SST,SSS,fu,fv,Q,E-P,i0,i1,a,b =   3.1968E+06 -1.3445E-01  3.4499E+01 -2.0088E-02 -2.8201E-02  2.4722E+02  0.0000E+00     1     2  7.3333E-01  2.6667E-01
time,fu0,fu1,fu =   3.1968E+06 -3.5633E-02 -1.4435E-02 -2.0088E-02  7.333333333333333E-01  2.666666666666667E-01
 cg2d: Sum(rhs),rhsMax =   2.74562317326144E-12  8.90375407700119E+00
time,SST,SSS,fu,fv,Q,E-P,i0,i1,a,b =   3.2400E+06 -1.5929E-01  3.4494E+01 -1.9734E-02 -2.7541E-02  2.4680E+02  0.0000E+00     1     2  7.5000E-01  2.5000E-01
time,fu0,fu1,fu =   3.2400E+06 -3.5633E-02 -1.4435E-02 -1.9734E-02  7.500000000000000E-01  2.500000000000000E-01
 cg2d: Sum(rhs),rhsMax =   2.86500684287816E-12  9.21995713878831E+00
time,SST,SSS,fu,fv,Q,E-P,i0,i1,a,b =   3.2832E+06 -1.8412E-01  3.4490E+01 -1.9381E-02 -2.6880E-02  2.4638E+02  0.0000E+00     1     2  7.6667E-01  2.3333E-01
time,fu0,fu1,fu =   3.2832E+06 -3.5633E-02 -1.4435E-02 -1.9381E-02  7.666666666666667E-01  2.333333333333333E-01
 cg2d: Sum(rhs),rhsMax =   2.29983393440492E-12  9.43408852180876E+00
time,SST,SSS,fu,fv,Q,E-P,i0,i1,a,b =   3.3264E+06 -2.0896E-01  3.4485E+01 -1.9028E-02 -2.6220E-02  2.4596E+02  0.0000E+00     1     2  7.8333E-01  2.1667E-01
time,fu0,fu1,fu =   3.3264E+06 -3.5633E-02 -1.4435E-02 -1.9028E-02  7.833333333333333E-01  2.166666666666667E-01
 cg2d: Sum(rhs),rhsMax =   2.38429415100327E-12  9.54305632483002E+00
time,SST,SSS,fu,fv,Q,E-P,i0,i1,a,b =   3.3696E+06 -2.3380E-01  3.4480E+01 -1.8674E-02 -2.5560E-02  2.4554E+02  0.0000E+00     1     2  8.0000E-01  2.0000E-01
time,fu0,fu1,fu =   3.3696E+06 -3.5633E-02 -1.4435E-02 -1.8674E-02  8.000000000000000E-01  2.000000000000000E-01
 cg2d: Sum(rhs),rhsMax =   2.31471092293489E-12  9.54625943469643E+00
time,SST,SSS,fu,fv,Q,E-P,i0,i1,a,b =   3.4128E+06 -2.5864E-01  3.4475E+01 -1.8321E-02 -2.4899E-02  2.4512E+02  0.0000E+00     1     2  8.1667E-01  1.8333E-01
time,fu0,fu1,fu =   3.4128E+06 -3.5633E-02 -1.4435E-02 -1.8321E-02  8.166666666666667E-01  1.833333333333333E-01
 cg2d: Sum(rhs),rhsMax =   1.98758370872909E-12  9.44553340487738E+00
time,SST,SSS,fu,fv,Q,E-P,i0,i1,a,b =   3.4560E+06 -2.8348E-01  3.4470E+01 -1.7968E-02 -2.4239E-02  2.4470E+02  0.0000E+00     1     2  8.3333E-01  1.6667E-01
time,fu0,fu1,fu =   3.4560E+06 -3.5633E-02 -1.4435E-02 -1.7968E-02  8.333333333333334E-01  1.666666666666666E-01
 cg2d: Sum(rhs),rhsMax =   2.28859986517449E-12  9.24503735083036E+00
time,SST,SSS,fu,fv,Q,E-P,i0,i1,a,b =   3.4992E+06 -3.0831E-01  3.4465E+01 -1.7614E-02 -2.3579E-02  2.4427E+02  0.0000E+00     1     2  8.5000E-01  1.5000E-01
time,fu0,fu1,fu =   3.4992E+06 -3.5633E-02 -1.4435E-02 -1.7614E-02  8.500000000000000E-01  1.500000000000000E-01
 cg2d: Sum(rhs),rhsMax =   2.52262793987157E-12  8.95108951118834E+00
time,SST,SSS,fu,fv,Q,E-P,i0,i1,a,b =   3.5424E+06 -3.3315E-01  3.4460E+01 -1.7261E-02 -2.2918E-02  2.4385E+02  0.0000E+00     1     2  8.6667E-01  1.3333E-01
time,fu0,fu1,fu =   3.5424E+06 -3.5633E-02 -1.4435E-02 -1.7261E-02  8.666666666666667E-01  1.333333333333333E-01
 cg2d: Sum(rhs),rhsMax =   2.94524127308904E-12  8.57195976548044E+00
time,SST,SSS,fu,fv,Q,E-P,i0,i1,a,b =   3.5856E+06 -3.5799E-01  3.4455E+01 -1.6908E-02 -2.2258E-02  2.4343E+02  0.0000E+00     1     2  8.8333E-01  1.1667E-01
time,fu0,fu1,fu =   3.5856E+06 -3.5633E-02 -1.4435E-02 -1.6908E-02  8.833333333333333E-01  1.166666666666667E-01
 cg2d: Sum(rhs),rhsMax =   2.92452173589197E-12  8.11762756642777E+00
time,SST,SSS,fu,fv,Q,E-P,i0,i1,a,b =   3.6288E+06 -3.8283E-01  3.4450E+01 -1.6555E-02 -2.1598E-02  2.4301E+02  0.0000E+00     1     2  9.0000E-01  1.0000E-01
time,fu0,fu1,fu =   3.6288E+06 -3.5633E-02 -1.4435E-02 -1.6555E-02  9.000000000000000E-01  9.999999999999998E-02
 cg2d: Sum(rhs),rhsMax =   3.88093723824312E-12  8.02199624565983E+00
time,SST,SSS,fu,fv,Q,E-P,i0,i1,a,b =   3.6720E+06 -4.0767E-01  3.4446E+01 -1.6201E-02 -2.0937E-02  2.4259E+02  0.0000E+00     1     2  9.1667E-01  8.3333E-02
time,fu0,fu1,fu =   3.6720E+06 -3.5633E-02 -1.4435E-02 -1.6201E-02  9.166666666666666E-01  8.333333333333337E-02
 cg2d: Sum(rhs),rhsMax =   4.00203481465411E-12  7.98965232011825E+00
time,SST,SSS,fu,fv,Q,E-P,i0,i1,a,b =   3.7152E+06 -4.3250E-01  3.4441E+01 -1.5848E-02 -2.0277E-02  2.4217E+02  0.0000E+00     1     2  9.3333E-01  6.6667E-02
time,fu0,fu1,fu =   3.7152E+06 -3.5633E-02 -1.4435E-02 -1.5848E-02  9.333333333333333E-01  6.666666666666665E-02
 cg2d: Sum(rhs),rhsMax =   4.30591673428182E-12  7.95826435472266E+00
time,SST,SSS,fu,fv,Q,E-P,i0,i1,a,b =   3.7584E+06 -4.5734E-01  3.4436E+01 -1.5495E-02 -1.9617E-02  2.4175E+02  0.0000E+00     1     2  9.5000E-01  5.0000E-02
time,fu0,fu1,fu =   3.7584E+06 -3.5633E-02 -1.4435E-02 -1.5495E-02  9.500000000000000E-01  5.000000000000004E-02
 cg2d: Sum(rhs),rhsMax =   3.96845056815920E-12  7.92999026247246E+00
time,SST,SSS,fu,fv,Q,E-P,i0,i1,a,b =   3.8016E+06 -4.8218E-01  3.4431E+01 -1.5141E-02 -1.8956E-02  2.4132E+02  0.0000E+00     1     2  9.6667E-01  3.3333E-02
time,fu0,fu1,fu =   3.8016E+06 -3.5633E-02 -1.4435E-02 -1.5141E-02  9.666666666666667E-01  3.333333333333333E-02
 cg2d: Sum(rhs),rhsMax =   4.45744829935535E-12  7.90697490166387E+00
time,SST,SSS,fu,fv,Q,E-P,i0,i1,a,b =   3.8448E+06 -5.0702E-01  3.4426E+01 -1.4788E-02 -1.8296E-02  2.4090E+02  0.0000E+00     1     2  9.8333E-01  1.6667E-02
time,fu0,fu1,fu =   3.8448E+06 -3.5633E-02 -1.4435E-02 -1.4788E-02  9.833333333333333E-01  1.666666666666672E-02
 cg2d: Sum(rhs),rhsMax =   4.35172731183542E-12  7.89125117673051E+00
S/R EXTERNAL_FIELDS_LOAD: Reading new data:    2    3        90  3.888000000000E+06
(PID.TID 0000.0001)  MDSREADFIELD: opening global file: trenberth_taux.bin
(PID.TID 0000.0001)  MDSREADFIELD: opening global file: trenberth_taux.bin
(PID.TID 0000.0001)  MDSREADFIELD: opening global file: trenberth_tauy.bin
(PID.TID 0000.0001)  MDSREADFIELD: opening global file: trenberth_tauy.bin
(PID.TID 0000.0001)  MDSREADFIELD: opening global file: ncep_qnet.bin
(PID.TID 0000.0001)  MDSREADFIELD: opening global file: ncep_qnet.bin
(PID.TID 0000.0001)  MDSREADFIELD: opening global file: lev_sst.bin
(PID.TID 0000.0001)  MDSREADFIELD: opening global file: lev_sst.bin
(PID.TID 0000.0001)  MDSREADFIELD: opening global file: lev_sss.bin
(PID.TID 0000.0001)  MDSREADFIELD: opening global file: lev_sss.bin
time,SST,SSS,fu,fv,Q,E-P,i0,i1,a,b =   3.8880E+06 -5.3186E-01  3.4421E+01 -1.4435E-02 -1.7636E-02  2.4048E+02  0.0000E+00     2     3  0.0000E+00  1.0000E+00
time,fu0,fu1,fu =   3.8880E+06 -1.4435E-02 -2.7199E-02 -1.4435E-02  0.000000000000000E+00  1.000000000000000E+00
 cg2d: Sum(rhs),rhsMax =   4.30404323292777E-12  7.88464123133911E+00
time,SST,SSS,fu,fv,Q,E-P,i0,i1,a,b =   3.9312E+06 -5.2606E-01  3.4424E+01 -1.4647E-02 -1.7351E-02  2.4006E+02  0.0000E+00     2     3  1.6667E-02  9.8333E-01
time,fu0,fu1,fu =   3.9312E+06 -1.4435E-02 -2.7199E-02 -1.4647E-02  1.666666666666667E-02  9.833333333333333E-01
 cg2d: Sum(rhs),rhsMax =   4.54736248656218E-12  8.18557498459242E+00
time,SST,SSS,fu,fv,Q,E-P,i0,i1,a,b =   3.9744E+06 -5.2026E-01  3.4426E+01 -1.4860E-02 -1.7067E-02  2.3964E+02  0.0000E+00     2     3  3.3333E-02  9.6667E-01
time,fu0,fu1,fu =   3.9744E+06 -1.4435E-02 -2.7199E-02 -1.4860E-02  3.333333333333333E-02  9.666666666666667E-01
 cg2d: Sum(rhs),rhsMax =   4.02858302273046E-12  8.65937283615722E+00
time,SST,SSS,fu,fv,Q,E-P,i0,i1,a,b =   4.0176E+06 -5.1446E-01  3.4429E+01 -1.5073E-02 -1.6783E-02  2.3923E+02  0.0000E+00     2     3  5.0000E-02  9.5000E-01
time,fu0,fu1,fu =   4.0176E+06 -1.4435E-02 -2.7199E-02 -1.5073E-02  5.000000000000000E-02  9.500000000000000E-01
 cg2d: Sum(rhs),rhsMax =   3.51526446840111E-12  9.08149160696374E+00
time,SST,SSS,fu,fv,Q,E-P,i0,i1,a,b =   4.0608E+06 -5.0866E-01  3.4432E+01 -1.5286E-02 -1.6498E-02  2.3881E+02  0.0000E+00     2     3  6.6667E-02  9.3333E-01
time,fu0,fu1,fu =   4.0608E+06 -1.4435E-02 -2.7199E-02 -1.5286E-02  6.666666666666667E-02  9.333333333333333E-01
 cg2d: Sum(rhs),rhsMax =   3.74738434727462E-12  9.44424379823296E+00
time,SST,SSS,fu,fv,Q,E-P,i0,i1,a,b =   4.1040E+06 -5.0286E-01  3.4434E+01 -1.5498E-02 -1.6214E-02  2.3839E+02  0.0000E+00     2     3  8.3333E-02  9.1667E-01
time,fu0,fu1,fu =   4.1040E+06 -1.4435E-02 -2.7199E-02 -1.5498E-02  8.333333333333333E-02  9.166666666666666E-01
 cg2d: Sum(rhs),rhsMax =   3.56757678954267E-12  9.74175932322258E+00
time,SST,SSS,fu,fv,Q,E-P,i0,i1,a,b =   4.1472E+06 -4.9706E-01  3.4437E+01 -1.5711E-02 -1.5930E-02  2.3797E+02  0.0000E+00     2     3  1.0000E-01  9.0000E-01
time,fu0,fu1,fu =   4.1472E+06 -1.4435E-02 -2.7199E-02 -1.5711E-02  1.000000000000000E-01  9.000000000000000E-01
 cg2d: Sum(rhs),rhsMax =   2.97955410344386E-12  9.97004089121583E+00
time,SST,SSS,fu,fv,Q,E-P,i0,i1,a,b =   4.1904E+06 -4.9126E-01  3.4440E+01 -1.5924E-02 -1.5646E-02  2.3755E+02  0.0000E+00     2     3  1.1667E-01  8.8333E-01
time,fu0,fu1,fu =   4.1904E+06 -1.4435E-02 -2.7199E-02 -1.5924E-02  1.166666666666667E-01  8.833333333333333E-01
 cg2d: Sum(rhs),rhsMax =   2.98856772662504E-12  1.01269753243185E+01
time,SST,SSS,fu,fv,Q,E-P,i0,i1,a,b =   4.2336E+06 -4.8546E-01  3.4442E+01 -1.6137E-02 -1.5361E-02  2.3714E+02  0.0000E+00     2     3  1.3333E-01  8.6667E-01
time,fu0,fu1,fu =   4.2336E+06 -1.4435E-02 -2.7199E-02 -1.6137E-02  1.333333333333333E-01  8.666666666666667E-01
 cg2d: Sum(rhs),rhsMax =   2.77528000580674E-12  1.02123017105532E+01
time,SST,SSS,fu,fv,Q,E-P,i0,i1,a,b =   4.2768E+06 -4.7966E-01  3.4445E+01 -1.6349E-02 -1.5077E-02  2.3672E+02  0.0000E+00     2     3  1.5000E-01  8.5000E-01
time,fu0,fu1,fu =   4.2768E+06 -1.4435E-02 -2.7199E-02 -1.6349E-02  1.500000000000000E-01  8.500000000000000E-01
 cg2d: Sum(rhs),rhsMax =   2.81982076577592E-12  1.02275380128948E+01
time,SST,SSS,fu,fv,Q,E-P,i0,i1,a,b =   4.3200E+06 -4.7386E-01  3.4447E+01 -1.6562E-02 -1.4793E-02  2.3630E+02  0.0000E+00     2     3  1.6667E-01  8.3333E-01
time,fu0,fu1,fu =   4.3200E+06 -1.4435E-02 -2.7199E-02 -1.6562E-02  1.666666666666667E-01  8.333333333333334E-01
 cg2d: Sum(rhs),rhsMax =   2.69214511794402E-12  1.01758685202733E+01
time,SST,SSS,fu,fv,Q,E-P,i0,i1,a,b =   4.3632E+06 -4.6807E-01  3.4450E+01 -1.6775E-02 -1.4508E-02  2.3588E+02  0.0000E+00     2     3  1.8333E-01  8.1667E-01
time,fu0,fu1,fu =   4.3632E+06 -1.4435E-02 -2.7199E-02 -1.6775E-02  1.833333333333333E-01  8.166666666666667E-01
 cg2d: Sum(rhs),rhsMax =   2.59198218444112E-12  1.00619953092788E+01
time,SST,SSS,fu,fv,Q,E-P,i0,i1,a,b =   4.4064E+06 -4.6227E-01  3.4453E+01 -1.6988E-02 -1.4224E-02  2.3546E+02  0.0000E+00     2     3  2.0000E-01  8.0000E-01
time,fu0,fu1,fu =   4.4064E+06 -1.4435E-02 -2.7199E-02 -1.6988E-02  2.000000000000000E-01  8.000000000000000E-01
 cg2d: Sum(rhs),rhsMax =   3.14082787555847E-12  9.89195766140874E+00
time,SST,SSS,fu,fv,Q,E-P,i0,i1,a,b =   4.4496E+06 -4.5647E-01  3.4455E+01 -1.7200E-02 -1.3940E-02  2.3505E+02  0.0000E+00     2     3  2.1667E-01  7.8333E-01
time,fu0,fu1,fu =   4.4496E+06 -1.4435E-02 -2.7199E-02 -1.7200E-02  2.166666666666667E-01  7.833333333333333E-01
 cg2d: Sum(rhs),rhsMax =   2.85863693827437E-12  9.67292412767438E+00
time,SST,SSS,fu,fv,Q,E-P,i0,i1,a,b =   4.4928E+06 -4.5067E-01  3.4458E+01 -1.7413E-02 -1.3655E-02  2.3463E+02  0.0000E+00     2     3  2.3333E-01  7.6667E-01
time,fu0,fu1,fu =   4.4928E+06 -1.4435E-02 -2.7199E-02 -1.7413E-02  2.333333333333333E-01  7.666666666666666E-01
 cg2d: Sum(rhs),rhsMax =   2.80520051632038E-12  9.41296262321739E+00
time,SST,SSS,fu,fv,Q,E-P,i0,i1,a,b =   4.5360E+06 -4.4487E-01  3.4461E+01 -1.7626E-02 -1.3371E-02  2.3421E+02  0.0000E+00     2     3  2.5000E-01  7.5000E-01
time,fu0,fu1,fu =   4.5360E+06 -1.4435E-02 -2.7199E-02 -1.7626E-02  2.500000000000000E-01  7.500000000000000E-01
 cg2d: Sum(rhs),rhsMax =   2.69657907114862E-12  9.12079453551752E+00
time,SST,SSS,fu,fv,Q,E-P,i0,i1,a,b =   4.5792E+06 -4.3907E-01  3.4463E+01 -1.7838E-02 -1.3087E-02  2.3379E+02  0.0000E+00     2     3  2.6667E-01  7.3333E-01
time,fu0,fu1,fu =   4.5792E+06 -1.4435E-02 -2.7199E-02 -1.7838E-02  2.666666666666667E-01  7.333333333333334E-01
 cg2d: Sum(rhs),rhsMax =   2.36968777933555E-12  8.86256531746294E+00
time,SST,SSS,fu,fv,Q,E-P,i0,i1,a,b =   4.6224E+06 -4.3327E-01  3.4466E+01 -1.8051E-02 -1.2803E-02  2.3337E+02  0.0000E+00     2     3  2.8333E-01  7.1667E-01
time,fu0,fu1,fu =   4.6224E+06 -1.4435E-02 -2.7199E-02 -1.8051E-02  2.833333333333333E-01  7.166666666666667E-01
 cg2d: Sum(rhs),rhsMax =   2.25468255177219E-12  8.89641367024080E+00
time,SST,SSS,fu,fv,Q,E-P,i0,i1,a,b =   4.6656E+06 -4.2747E-01  3.4469E+01 -1.8264E-02 -1.2518E-02  2.3296E+02  0.0000E+00     2     3  3.0000E-01  7.0000E-01
time,fu0,fu1,fu =   4.6656E+06 -1.4435E-02 -2.7199E-02 -1.8264E-02  3.000000000000000E-01  7.000000000000000E-01
 cg2d: Sum(rhs),rhsMax =   2.32339147920868E-12  8.91497206305674E+00
time,SST,SSS,fu,fv,Q,E-P,i0,i1,a,b =   4.7088E+06 -4.2167E-01  3.4471E+01 -1.8477E-02 -1.2234E-02  2.3254E+02  0.0000E+00     2     3  3.1667E-01  6.8333E-01
time,fu0,fu1,fu =   4.7088E+06 -1.4435E-02 -2.7199E-02 -1.8477E-02  3.166666666666667E-01  6.833333333333333E-01
 cg2d: Sum(rhs),rhsMax =   2.58842947076232E-12  8.91793954410515E+00
time,SST,SSS,fu,fv,Q,E-P,i0,i1,a,b =   4.7520E+06 -4.1587E-01  3.4474E+01 -1.8689E-02 -1.1950E-02  2.3212E+02  0.0000E+00     2     3  3.3333E-01  6.6667E-01
time,fu0,fu1,fu =   4.7520E+06 -1.4435E-02 -2.7199E-02 -1.8689E-02  3.333333333333333E-01  6.666666666666667E-01
 cg2d: Sum(rhs),rhsMax =   2.42276337880654E-12  8.90561083744929E+00
time,SST,SSS,fu,fv,Q,E-P,i0,i1,a,b =   4.7952E+06 -4.1007E-01  3.4476E+01 -1.8902E-02 -1.1665E-02  2.3170E+02  0.0000E+00     2     3  3.5000E-01  6.5000E-01
time,fu0,fu1,fu =   4.7952E+06 -1.4435E-02 -2.7199E-02 -1.8902E-02  3.500000000000000E-01  6.500000000000000E-01
 cg2d: Sum(rhs),rhsMax =   2.82632944825778E-12  8.87885342559641E+00
time,SST,SSS,fu,fv,Q,E-P,i0,i1,a,b =   4.8384E+06 -4.0427E-01  3.4479E+01 -1.9115E-02 -1.1381E-02  2.3128E+02  0.0000E+00     2     3  3.6667E-01  6.3333E-01
time,fu0,fu1,fu =   4.8384E+06 -1.4435E-02 -2.7199E-02 -1.9115E-02  3.666666666666666E-01  6.333333333333333E-01
 cg2d: Sum(rhs),rhsMax =   2.71376671134860E-12  8.83905908124474E+00
time,SST,SSS,fu,fv,Q,E-P,i0,i1,a,b =   4.8816E+06 -3.9848E-01  3.4482E+01 -1.9328E-02 -1.1097E-02  2.3087E+02  0.0000E+00     2     3  3.8333E-01  6.1667E-01
time,fu0,fu1,fu =   4.8816E+06 -1.4435E-02 -2.7199E-02 -1.9328E-02  3.833333333333334E-01  6.166666666666667E-01
 cg2d: Sum(rhs),rhsMax =   3.30014487959218E-12  8.78807262374498E+00
time,SST,SSS,fu,fv,Q,E-P,i0,i1,a,b =   4.9248E+06 -3.9268E-01  3.4484E+01 -1.9540E-02 -1.0813E-02  2.3045E+02  0.0000E+00     2     3  4.0000E-01  6.0000E-01
time,fu0,fu1,fu =   4.9248E+06 -1.4435E-02 -2.7199E-02 -1.9540E-02  4.000000000000000E-01  6.000000000000000E-01
 cg2d: Sum(rhs),rhsMax =   2.69822358900385E-12  8.72810183688228E+00
time,SST,SSS,fu,fv,Q,E-P,i0,i1,a,b =   4.9680E+06 -3.8688E-01  3.4487E+01 -1.9753E-02 -1.0528E-02  2.3003E+02  0.0000E+00     2     3  4.1667E-01  5.8333E-01
time,fu0,fu1,fu =   4.9680E+06 -1.4435E-02 -2.7199E-02 -1.9753E-02  4.166666666666667E-01  5.833333333333333E-01
 cg2d: Sum(rhs),rhsMax =   2.25967161648910E-12  8.66161353974614E+00
time,SST,SSS,fu,fv,Q,E-P,i0,i1,a,b =   5.0112E+06 -3.8108E-01  3.4490E+01 -1.9966E-02 -1.0244E-02  2.2961E+02  0.0000E+00     2     3  4.3333E-01  5.6667E-01
time,fu0,fu1,fu =   5.0112E+06 -1.4435E-02 -2.7199E-02 -1.9966E-02  4.333333333333333E-01  5.666666666666667E-01
 cg2d: Sum(rhs),rhsMax =   3.12819214975946E-12  8.59122145623475E+00
time,SST,SSS,fu,fv,Q,E-P,i0,i1,a,b =   5.0544E+06 -3.7528E-01  3.4492E+01 -2.0179E-02 -9.9597E-03  2.2919E+02  0.0000E+00     2     3  4.5000E-01  5.5000E-01
time,fu0,fu1,fu =   5.0544E+06 -1.4435E-02 -2.7199E-02 -2.0179E-02  4.500000000000000E-01  5.500000000000000E-01
 cg2d: Sum(rhs),rhsMax =   2.83165157988208E-12  8.77527673660993E+00
time,SST,SSS,fu,fv,Q,E-P,i0,i1,a,b =   5.0976E+06 -3.6948E-01  3.4495E+01 -2.0391E-02 -9.6754E-03  2.2877E+02  0.0000E+00     2     3  4.6667E-01  5.3333E-01
time,fu0,fu1,fu =   5.0976E+06 -1.4435E-02 -2.7199E-02 -2.0391E-02  4.666666666666667E-01  5.333333333333333E-01
 cg2d: Sum(rhs),rhsMax =   2.09640638182407E-12  9.00166221377888E+00
time,SST,SSS,fu,fv,Q,E-P,i0,i1,a,b =   5.1408E+06 -3.6368E-01  3.4497E+01 -2.0604E-02 -9.3911E-03  2.2836E+02  0.0000E+00     2     3  4.8333E-01  5.1667E-01
time,fu0,fu1,fu =   5.1408E+06 -1.4435E-02 -2.7199E-02 -2.0604E-02  4.833333333333333E-01  5.166666666666666E-01
 cg2d: Sum(rhs),rhsMax =   1.74241177042234E-12  9.15305690586694E+00
 --> objf_test(bi,bj)   =  0.000000000000000E+00
 --> objf_tracer(bi,bj) =  0.000000000000000E+00
 --> objf_atl(bi,bj)    = -0.114865708507153E+00
  local fc = -0.114865708507153E+00
 global fc = -0.114865708507153E+00
 ph-check fcpertplus =  -0.114865709
(PID.TID 0000.0001)  MDSREADFIELD: opening file: xx_theta.0000000000.001.001.data
 ph-check fcpertminus =  -0.114865705
(PID.TID 0000.0001)  MDSREADFIELD: opening file: xx_theta.0000000000.001.001.data
(PID.TID 0000.0001)  MDSREADFIELD: opening global file: bathymetry.bin
(PID.TID 0000.0001) // =======================================================
(PID.TID 0000.0001) // Field Model R_low (ini_masks_etc) at iteration          1
(PID.TID 0000.0001) // CMIN =         -5.200000000000000E+03
(PID.TID 0000.0001) // CMAX =         -1.200000000000000E+02
(PID.TID 0000.0001) // CINT =          1.881481481481482E+02
(PID.TID 0000.0001) // SYMBOLS (CMIN->CMAX): -abcdefghijklmnopqrstuvwxyz+
(PID.TID 0000.0001) //                  0.0: .
(PID.TID 0000.0001) // RANGE I (Lo:Hi:Step):(  -2:  93:   1)
(PID.TID 0000.0001) // RANGE J (Lo:Hi:Step):(  43:  -2:  -1)
(PID.TID 0000.0001) // RANGE K (Lo:Hi:Step):(   1:   1:   1)
(PID.TID 0000.0001) // =======================================================
(PID.TID 0000.0001) K =   1
(PID.TID 0000.0001) //                I=7       I=17      I=27      I=37      I=47      I=57      I=67      I=77      I=87
(PID.TID 0000.0001) // |--J--|210123456|890123456|890123456|890123456|890123456|890123456|890123456|890123456|890123456|890123
(PID.TID 0000.0001) //     43 ................................................................................................
(PID.TID 0000.0001) //     42 .............................................zyxxmgfeeefefgimnpwwwy..+zyy.....yyyyoiiihhz+......
(PID.TID 0000.0001) //     41 ................................................................................................
(PID.TID 0000.0001) //     40 +qlloqz+.++++zzz++++++..................................................................+++qlloq
(PID.TID 0000.0001) //     39 uslloorzzzzzzzzz+...++.....................................................yxxz........+zvuslloo
(PID.TID 0000.0001) //     38 smqpporzzzzzz+++...........................................................zxxy+......zyyvsmqppo
(PID.TID 0000.0001) //     37 smmmuz..................................................................++...zy+...yttyy.+smmmuz
(PID.TID 0000.0001) //     36 yutt+.........................................mm++....................+++++++znmm.yoowssvuyutt+.
(PID.TID 0000.0001) //     35 w++++.................................+zzz..rrmmkk+...+gghn...........+++....+nmiijlsoopuww++++.
(PID.TID 0000.0001) //     34 +.....................................+vvy.ggqyxv+y.ccdffhim..................+nihhikkihhm+.....
(PID.TID 0000.0001) //     33 w+.....................................uuz---h------aaabdefin+.................zqvddflifffw+....
(PID.TID 0000.0001) //     32 m+.....................................+t----h---------acdfgnn................+++gdffkofffm+....
(PID.TID 0000.0001) //     31 m......................................-----ad--------abddegil..............qbaafccdhqqgddm.....
(PID.TID 0000.0001) //     30 i.....................................f----b--b------------abd............zfbb--fbcdosjfddi.....
(PID.TID 0000.0001) //     29 i...................................tu----e---fjg----------abdf...........eaac--abfmijaadgi.....
(PID.TID 0000.0001) //     28 z.................................+xfl-------------------bdedefi.........qbaa---aemfbbaaejz.....
(PID.TID 0000.0001) //     27 .................xx..............+wfgfpf--------eallc---bbbccefgi...+++x.qb-----akfa---ah.......
(PID.TID 0000.0001) //     26 .................xnn...........+vd---dna------a--aicfna---aabdfghku.++xssuy-----bgca---ci.......
(PID.TID 0000.0001) //     25 .................iiik...oo+...+ivd---doaa-bc--ilglf--aa---aabcghhkll...ssum+xaaacjbaabdjk.......
(PID.TID 0000.0001) //     24 ...............xnheeft.kkk+...uii.aagdm----aa-----a-------bbbcdefjljjju.zummwwbbchba--abi.......
(PID.TID 0000.0001) //     23 ...............xgheefp.iikw...uuw..fihi----fed-----eaaa--bbbbcdfflkjiiiq....zykccefa--abd.......
(PID.TID 0000.0001) //     22 quss...........bbelffslffkk...zz.wqkeeqoheccdfa-----egabaabcdddegghliiiqq......xeeehheehccquss..
(PID.TID 0000.0001) //     21 cbbeir........nbbcdjhqdddiiz.....wqfeelgghmedea-----bibbcddddddefghklnqoo........ieeflhgcccbbeir
(PID.TID 0000.0001) //     20 cbbder.......ldcccdgkccccidd......z.vkkktqqhegg----aaacddddddddefghkiiijl.........nhfa--gfcbbder
(PID.TID 0000.0001) //     19 hcdaaf.......kddosggpaaaibbccx...+z+.....r+nlec---agaaabcddccddefikfgffff...........d---cjhcdaaf
(PID.TID 0000.0001) //     18 hd---d.......kglggvliaaaibbcaaeaiv++...qqzolhecccfdgkaabcdfccdeeikgfgffdd+..........d---djhd---d
(PID.TID 0000.0001) //     17 hc---c.......l.feewlfaaaoaa----aiv.....qqnllslmlofcdbaacceffffhhligfigeddj.........hd---ckhc---c
(PID.TID 0000.0001) //     16 gba--c......tn.ddgnlfdaaqa-----lv.......vnllvllnwv--accivomfffhilhgfffeddjf........re--aeigba--c
(PID.TID 0000.0001) //     15 fb--dpz....+ll.ccdfhmdddlc----av.........otsxoomv---abccddfihgijkhgfffeejfff......+fd---ckfb--dp
(PID.TID 0000.0001) //     14 fc--mcl....weeqbaafilkfend--eagy.........hhstofft----aacdheefijkmjhhjijiffff.....zlfdaaadlfc--mc
(PID.TID 0000.0001) //     13 hcclbbg....nccobaaiddgkffqrqeaal.........eeutqfft------aaceeffhijlkjhhigfffq....+jgfodccflhcclbb
(PID.TID 0000.0001) //     12 hhgaaacw+iiicclemhdddfliigfdcaabfaaaz....ccsurqpc--------abcifffikiiihhggff.....kbbbdfffglhhgaaa
(PID.TID 0000.0001) //     11 kgcaaacbbifccennhbbdefnihgfdccaaaa----..dcccnt.ncab-------aabcdfilhggjiggff....l---abcefjlkgcaaa
(PID.TID 0000.0001) //     10 kfcaaccbdaacfrllfbbdegkmmljhfdddba----d.dcccfx.nyrebaba----abcdgilhfeegijgi..+w--aa-abcfilkfcaac
(PID.TID 0000.0001) //      9 lffcdcccaaaoqsolfdeehikihhlllgfedcccccdmdcccf.vyfaaaaaaaa--abdehmjhfeeefglv.++w-----abcdfklffcdc
(PID.TID 0000.0001) //      8 liffjklcaafddffeeccvznkfffhhhlkjifgjkkfeeddfsyvcaaaaaaccdcccdfgjligedbbceg+.++xffn--cfddefliffjk
(PID.TID 0000.0001) //      7 hmqnnbbkkf--bmbaabbgtykfddeffeeddccdfhlffeelfbaaaaaacddeghgjgjlligeddaaabedfiiiiiisvkfkecchmqnnb
(PID.TID 0000.0001) //      6 cca-------------aabcelttdddedddddccccdfkkiiffbaaaabcdgimmkmefecaaabbbaaabbdfiiiiispmmregifcca---
(PID.TID 0000.0001) //      5 --------a-------aaccehhhiddeddddddcccdfiikomodddefffmlmigedccaaaaaaaababbbdfiijsqgeccccbaa------
(PID.TID 0000.0001) //      4 --ahebaabbbbbeihffgijiiiijpywnnpokkomkiiijmmmolkommmgffeeedccaaaaaabbcccefhmz..yjgeccccbaa--aheb
(PID.TID 0000.0001) //      3 gffhhrpjiiwyy............................yxotmjjjjgfeeeeeeddeffffheddeghjkyy..yqjgeddccdbbgffhhr
(PID.TID 0000.0001) //      2 .............................................zyxxmgfeeefefgimnpwwwy..+zyy.....yyyyoiiihhz+......
(PID.TID 0000.0001) //      1 ................................................................................................
(PID.TID 0000.0001) //      0 +qlloqz+.++++zzz++++++..................................................................+++qlloq
(PID.TID 0000.0001) //     -1 uslloorzzzzzzzzz+...++.....................................................yxxz........+zvuslloo
(PID.TID 0000.0001) //     -2 ................................................................................................
(PID.TID 0000.0001) // =======================================================
(PID.TID 0000.0001) // END OF FIELD                                          =
(PID.TID 0000.0001) // =======================================================
(PID.TID 0000.0001) 
(PID.TID 0000.0001) // =======================================================
(PID.TID 0000.0001) // Field Model Ro_surf (ini_masks_etc) at iteration          1
(PID.TID 0000.0001) // CMIN =          1.000000000000000E+32
(PID.TID 0000.0001) // CMAX =         -1.000000000000000E+32
(PID.TID 0000.0001) // CINT =          0.000000000000000E+00
(PID.TID 0000.0001) // SYMBOLS (CMIN->CMAX): -abcdefghijklmnopqrstuvwxyz+
(PID.TID 0000.0001) //                  0.0: .
(PID.TID 0000.0001) // RANGE I (Lo:Hi:Step):(  -2:  93:   1)
(PID.TID 0000.0001) // RANGE J (Lo:Hi:Step):(  43:  -2:  -1)
(PID.TID 0000.0001) // RANGE K (Lo:Hi:Step):(   1:   1:   1)
(PID.TID 0000.0001) // =======================================================
(PID.TID 0000.0001) // =======================================================
(PID.TID 0000.0001) // END OF FIELD                                          =
(PID.TID 0000.0001) // =======================================================
(PID.TID 0000.0001) 
(PID.TID 0000.0001) // =======================================================
(PID.TID 0000.0001) // Field hFacC at iteration          1
(PID.TID 0000.0001) // CMIN =          1.000000000000000E+00
(PID.TID 0000.0001) // CMAX =          1.000000000000000E+00
(PID.TID 0000.0001) // CINT =          0.000000000000000E+00
(PID.TID 0000.0001) // SYMBOLS (CMIN->CMAX): -abcdefghijklmnopqrstuvwxyz+
(PID.TID 0000.0001) //                  0.0: .
(PID.TID 0000.0001) // RANGE I (Lo:Hi:Step):(  -2:  93:   1)
(PID.TID 0000.0001) // RANGE J (Lo:Hi:Step):(  43:  -2:  -1)
(PID.TID 0000.0001) // RANGE K (Lo:Hi:Step):(   1:   1:   1)
(PID.TID 0000.0001) // =======================================================
(PID.TID 0000.0001) // =======================================================
(PID.TID 0000.0001) // END OF FIELD                                          =
(PID.TID 0000.0001) // =======================================================
(PID.TID 0000.0001) 
(PID.TID 0000.0001) // =======================================================
(PID.TID 0000.0001) // Field hFacW at iteration          1
(PID.TID 0000.0001) // CMIN =          1.000000000000000E+00
(PID.TID 0000.0001) // CMAX =          1.000000000000000E+00
(PID.TID 0000.0001) // CINT =          0.000000000000000E+00
(PID.TID 0000.0001) // SYMBOLS (CMIN->CMAX): -abcdefghijklmnopqrstuvwxyz+
(PID.TID 0000.0001) //                  0.0: .
(PID.TID 0000.0001) // RANGE I (Lo:Hi:Step):(  -2:  93:   1)
(PID.TID 0000.0001) // RANGE J (Lo:Hi:Step):(  43:  -2:  -1)
(PID.TID 0000.0001) // RANGE K (Lo:Hi:Step):(   1:   1:   1)
(PID.TID 0000.0001) // =======================================================
(PID.TID 0000.0001) // =======================================================
(PID.TID 0000.0001) // END OF FIELD                                          =
(PID.TID 0000.0001) // =======================================================
(PID.TID 0000.0001) 
(PID.TID 0000.0001) // =======================================================
(PID.TID 0000.0001) // Field hFacS at iteration          1
(PID.TID 0000.0001) // CMIN =          1.000000000000000E+00
(PID.TID 0000.0001) // CMAX =          1.000000000000000E+00
(PID.TID 0000.0001) // CINT =          0.000000000000000E+00
(PID.TID 0000.0001) // SYMBOLS (CMIN->CMAX): -abcdefghijklmnopqrstuvwxyz+
(PID.TID 0000.0001) //                  0.0: .
(PID.TID 0000.0001) // RANGE I (Lo:Hi:Step):(  -2:  93:   1)
(PID.TID 0000.0001) // RANGE J (Lo:Hi:Step):(  43:  -2:  -1)
(PID.TID 0000.0001) // RANGE K (Lo:Hi:Step):(   1:   1:   1)
(PID.TID 0000.0001) // =======================================================
(PID.TID 0000.0001) // =======================================================
(PID.TID 0000.0001) // END OF FIELD                                          =
(PID.TID 0000.0001) // =======================================================
(PID.TID 0000.0001) 
(PID.TID 0000.0001) %MON ad_advcflfCori_max           =   1.4226580169407E-04
(PID.TID 0000.0001) %MON ad_advcflfCori_min           =  -1.4226580169407E-04
(PID.TID 0000.0001) %MON ad_advcflfCori_mean          =   7.5291817533716E-23
(PID.TID 0000.0001) %MON ad_advcflfCori_sd            =   9.6335367303778E-05
(PID.TID 0000.0001) %MON ad_advcflfCoriG_max          =   1.4112379284621E-04
(PID.TID 0000.0001) %MON ad_advcflfCoriG_min          =  -1.4323448157692E-04
(PID.TID 0000.0001) %MON ad_advcflfCoriG_mean         =  -3.6726790147928E-06
(PID.TID 0000.0001) %MON ad_advcflfCoriG_sd           =   9.7510077443652E-05
(PID.TID 0000.0001) %MON ad_advcflfCoriCos_max        =   1.4535550371427E-04
(PID.TID 0000.0001) %MON ad_advcflfCoriCos_min        =   3.0239529651320E-05
(PID.TID 0000.0001) %MON ad_advcflfCoriCos_mean       =   1.0260497651149E-04
(PID.TID 0000.0001) %MON ad_advcflfCoriCos_sd         =   3.6683828681187E-05
(PID.TID 0000.0001) INI_CG2D: CG2D normalisation factor =  6.5682677425711703E-05
(PID.TID 0000.0001) 
(PID.TID 0000.0001)  MDSREADFIELD: opening global file: lev_t.bin
(PID.TID 0000.0001) // =======================================================
(PID.TID 0000.0001) // Field Initial Temperature at iteration          1
(PID.TID 0000.0001) // CMIN =         -1.900000000000000E+00
(PID.TID 0000.0001) // CMAX =          2.973338890075684E+01
(PID.TID 0000.0001) // CINT =          1.171606996324327E+00
(PID.TID 0000.0001) // SYMBOLS (CMIN->CMAX): -abcdefghijklmnopqrstuvwxyz+
(PID.TID 0000.0001) //                  0.0: .
(PID.TID 0000.0001) // RANGE I (Lo:Hi:Step):(   1:  90:   1)
(PID.TID 0000.0001) // RANGE J (Lo:Hi:Step):(  40:   1:  -1)
(PID.TID 0000.0001) // RANGE K (Lo:Hi:Step):(   1:   1:   1)
(PID.TID 0000.0001) // =======================================================
(PID.TID 0000.0001) K =   1
(PID.TID 0000.0001)                I=10      I=20      I=30      I=40      I=50      I=60      I=70      I=80      I=90
(PID.TID 0000.0001) |--J--|123456789|123456789|123456789|123456789|123456789|123456789|123456789|123456789|123456789|
(PID.TID 0000.0001)     40 bccdd.baa----abdedd..................................................................bbbbb
(PID.TID 0000.0001)     39 ccdddddccbbbaa...ed.....................................................----........bbbbbb
(PID.TID 0000.0001)     38 fffgfedeedddc...........................................................-----......cbbbcde
(PID.TID 0000.0001)     37 ghh..................................................................bc...bbc...edeed.defg
(PID.TID 0000.0001)     36 hh.........................................ddcb....................dcccbabccdd.eefghhihhih
(PID.TID 0000.0001)     35 hh.................................aaab..dddeddd...ffggg...........ccc....ddeeeffghijjjjih
(PID.TID 0000.0001)     34 ...................................babb.deeeeeee.ffffgghh..................ccdffghijkkkj..
(PID.TID 0000.0001)     33 ....................................accdddeeeeefffffgghhiii.................bcfijkkllllkk.
(PID.TID 0000.0001)     32 ....................................bdddeffgffgghhhhhiiijjj................dccglmnmmmmlll.
(PID.TID 0000.0001)     31 ....................................fghiiiijjjjjjkkkkklllkk..............ikkjjmooooonnmm..
(PID.TID 0000.0001)     30 ...................................mmmnmmmmmmmmmmmmmnnnnnmm............moqrrrqrqqqpppooo..
(PID.TID 0000.0001)     29 .................................pqqqqqpppppppppoppoppppponm...........ssssssrrrrrqqqqpp..
(PID.TID 0000.0001)     28 ...............................prssssrrrsssrrrrrrrrrrrrrqqpoo.........uttssstssrssrrrqqq..
(PID.TID 0000.0001)     27 ..............vv..............stuttuuuuutuuuuuuuuuuttttssrrqqq...stuu.vvvuuuuutttttsss....
(PID.TID 0000.0001)     26 ..............vvv...........uuvvvvvwwwwwwwwvvvvvvvvvuuutttsssttv.uuvxxwwwwwwvvvvuuttsr....
(PID.TID 0000.0001)     25 ..............wwwx...xxx...vvvxxxxxyyxxxxxxxxxwwwwwvvvvvuuuuuvwwx...xxxxxxwwwwwwvvutsr....
(PID.TID 0000.0001)     24 ............wwwwxyy.xxyy...wxx.yyyyyyyyyyyxxxxxxxxwwwwwwwvvwwxxyywww.xxxxxxxxxxwwwvvur....
(PID.TID 0000.0001)     23 ............xxxyyyz.xyyy...xxx..yyyyzzyyyyyyyyxxxxxxxxxwwwwwxxxwwwwwx....vwxxxxwwwwwvu....
(PID.TID 0000.0001)     22 w...........xxyyyzyyyyyz...xx.yyzzzzzzzzzzzzzyyzyyyyyyxxwwxxxxwvvvwwxw......yyyyxxxxxxwxxw
(PID.TID 0000.0001)     21 xxx........xxxxyyzzzzzzz+.....zyzzzzzzz++zzzzyyyyyyyyxxwvvwwwwvvvvvvvu........yyyyyyyyyxxx
(PID.TID 0000.0001)     20 xww.......xyyyyxyyzzzzzz+......z.zzzzz+++zzzzzzyyyyyxxxxwvwxwvuuuuuuut.........yyyyxxxxwww
(PID.TID 0000.0001)     19 vvv.......yyyyxwwxyzyyzzzzz...zzz.....++++++z++z+zzzyyyyxxxxwwvvvvvvvu...........yyxxxwwww
(PID.TID 0000.0001)     18 uut.......zzyyywwxyzyyyyzzyzzzzzz...z+z++++zz+++++++zzzyyyyxxwwwvvvvvtt..........yyxxwvvwv
(PID.TID 0000.0001)     17 uus.......z.yyyyyyxyzzyyyyyyyzz.....yzzzzzzzzzzzzzzzzzzyyyyxxwwvuuvvuut.........yyyxxwttvu
(PID.TID 0000.0001)     16 utr......yy.zyyyyxxxxxxxwxxxxy.......yyyyyyyyyyyyyyyyyyyyyyyxxwvvvuuutts........xyyyxwvuuu
(PID.TID 0000.0001)     15 ttrr....xxx.xxxwxwwwwvwwvvvww.........xwxxxxxxxxxxxxxxxxxyyyxwwwvvuttssrr......wxxxxxwwvuu
(PID.TID 0000.0001)     14 ttsq....xyxwwxwvwwwvutuuuuuuu.........wwvwwwwvwvvwwwvwvvwwwwwwvvvuuutssrr.....vwwwwwwwvvvu
(PID.TID 0000.0001)     13 tttr....wwwvvvtttuuuutttssttt.........vvvuuuuuuutttttuuuuuvwwwuuuttttssrr....uvvvvvvvvvvut
(PID.TID 0000.0001)     12 sssssstttutssssrrrrrstrqqrrssqqrrq....uuttssssrrrrrrrrrrrstttssssrssrrqp.....uuuttssttssss
(PID.TID 0000.0001)     11 poprsssrqqqqqrqppooopqpoppppppppppp..sssrrr.rqpppqqqqppppqqqoppqqqqrqqpp....prsrqqqqqppppq
(PID.TID 0000.0001)     10 lllmoooonmnnmnnnnmmmmmmlmmlllmnnnnon.qqqppp.ppppppooooooooonmnnnonnooooo..nmoponnmnnnnnmll
(PID.TID 0000.0001)      9 ihhiiiihhhhhhiiihiiiiihhhiiiijjkkmnllnnnnn.mmmmnnnnmmmmnnmmlklllllklllll.mllmmllkjiijjihhi
(PID.TID 0000.0001)      8 eeeeeeeedefgggffeeffggffffggghiiiijjijklklkkkkkkkklllkkkkjjiiijkjjjjjjkj.kkjjiihggffffedde
(PID.TID 0000.0001)      7 cccccddeedddefeddddddddddefeefffffgggghiiiiiijjjihhgggghhhhhghhhhhhhiiiihiihhgfeddddddcccc
(PID.TID 0000.0001)      6 abbcccddcccccdddddccdddddddccddddddeeeeffggggghhgeddddddeeeeeeefggggghggggffeedccbbbbbbbba
(PID.TID 0000.0001)      5 bbbcccccccccccccccccccccbbccccdddddddcccddeeddeedcbbbbbbccccccdddeeeeeddddddccbbbbaaaaaaab
(PID.TID 0000.0001)      4 bbbbbbbaaabbbbbbbbbbbbaabbabbbbcbbbbbbbbbbbbbbbbbbbabbaaabbbbbbbbbbbbbbbbb..a--aaabbbaaabb
(PID.TID 0000.0001)      3 bbbbaaa-a-............................bbaaaaaaaaaaaaaaaaaaaaaaaaaaaaaaaab..aaaaaaaabbbaaaa
(PID.TID 0000.0001)      2 ..........................................baaaaaaaaaaaa-------aa..aaaa.....aaaaaaaaaaaa...
(PID.TID 0000.0001)      1 ..........................................................................................
(PID.TID 0000.0001) // =======================================================
(PID.TID 0000.0001) // END OF FIELD                                          =
(PID.TID 0000.0001) // =======================================================
(PID.TID 0000.0001) 
(PID.TID 0000.0001)  MDSREADFIELD: opening global file: lev_s.bin
(PID.TID 0000.0001) // =======================================================
(PID.TID 0000.0001) // Field Initial Salinity at iteration          1
(PID.TID 0000.0001) // CMIN =          2.975276947021484E+01
(PID.TID 0000.0001) // CMAX =          3.747562789916992E+01
(PID.TID 0000.0001) // CINT =          2.860317936650029E-01
(PID.TID 0000.0001) // SYMBOLS (CMIN->CMAX): -abcdefghijklmnopqrstuvwxyz+
(PID.TID 0000.0001) //                  0.0: .
(PID.TID 0000.0001) // RANGE I (Lo:Hi:Step):(   1:  90:   1)
(PID.TID 0000.0001) // RANGE J (Lo:Hi:Step):(  40:   1:  -1)
(PID.TID 0000.0001) // RANGE K (Lo:Hi:Step):(   1:   1:   1)
(PID.TID 0000.0001) // =======================================================
(PID.TID 0000.0001) K =   1
(PID.TID 0000.0001)                I=10      I=20      I=30      I=40      I=50      I=60      I=70      I=80      I=90
(PID.TID 0000.0001) |--J--|123456789|123456789|123456789|123456789|123456789|123456789|123456789|123456789|123456789|
(PID.TID 0000.0001)     40 qrrrr.oonnooopqtutt..................................................................mnnop
(PID.TID 0000.0001)     39 rssrrrrrrrqqpn...ut.....................................................mmmm........opqqqr
(PID.TID 0000.0001)     38 ssrrqqqqrrqpo...........................................................lkkll......onoqrrs
(PID.TID 0000.0001)     37 ssr..................................................................hg...lln...qppqr.rrrs
(PID.TID 0000.0001)     36 rr.........................................lkji....................feeegikmoop.pqrssssssss
(PID.TID 0000.0001)     35 rr.................................kkkk..lllllki...jijjj...........aa-....opqrrrrrrrssttss
(PID.TID 0000.0001)     34 ...................................jlll.kklllllk.ijkkkjih..................hlpqrqrrsstts..
(PID.TID 0000.0001)     33 ....................................iklkkkkkkkkkjkkjjjjjjii.................jmprrsstttttt.
(PID.TID 0000.0001)     32 ....................................iklllkllllllllkkkkkkkji................gilpstuuttuuut.
(PID.TID 0000.0001)     31 ....................................lmnonnnnoooonnmmmmllkjj..............loopqtvvvuuuuuu..
(PID.TID 0000.0001)     30 ...................................pppppppqqqqpppoooonnmlkk............ptvxwwvvwvvvvvvvu..
(PID.TID 0000.0001)     29 .................................pqqrqqqqqqrrrqqppqqqpponmll...........vxxxxxxwwwwwxwwxw..
(PID.TID 0000.0001)     28 ...............................prrrrrqqrrrrrsrrsrssssssrqonmm.........wxxxxxxxyyyyyyyyxx..
(PID.TID 0000.0001)     27 ..............xx..............prrrrrrrrrssssssstttssssssrqpoop...uwww.wwxxxyyy++zzzzyy....
(PID.TID 0000.0001)     26 ..............wxx...........ppqrrrrrrsssrrstsstttssrrrrrrrqppqqp.wwwvvwwwwwxyy+++zzyxw....
(PID.TID 0000.0001)     25 ..............wxxv...kkk...ooopqrrrrrssrrrrrrrssssqqpppppppppppoo...vvutuuvvwxyyyxxvvu....
(PID.TID 0000.0001)     24 ............uvvwwur.lmlk...nmm.pqqqqrrrrrqqqqrrqqrpppppooooonmmmnooo.uuuuuuttuvvvuvuut....
(PID.TID 0000.0001)     23 ............vvuvtqp.lmml...mln..ppppqpqppppppqpppppppppqppponnnnnoopm....xvuuuvvvvuuut....
(PID.TID 0000.0001)     22 r...........vuttsqqpnppn...mm.oppqqrrqqqqqqppppqqrrrqqqrrppppoopooomjj......uuvvvvvuttssrr
(PID.TID 0000.0001)     21 qmm........ttsssssssrsqon.....opqqqqqqqrrrrqqqssssssrrrrrrrrpqqqppomll........tvvvvuttssrr
(PID.TID 0000.0001)     20 sqq.......sttssrrsrrrrpol......p.qrqpqrrrrrrrstttttsssrrsssrqrrrrqqqpo.........wwwvvvuuutt
(PID.TID 0000.0001)     19 tsr.......ssssrrrrpppppnmmm...oqq.....qrqqsrrstttuuuttssttssrrssrrrrqq...........wwwvuvvvv
(PID.TID 0000.0001)     18 wut.......ssrrrrrqppppppppoooorrr...poqqqprrrttttuuutuuuuuutttttttutsss..........yyxwwxwxx
(PID.TID 0000.0001)     17 wwu.......s.rrrrrrqppppqqqqqqqr.....rrsrqrsssuusrtuuuvvvwwvvvuuuuutttss.........xyzyyyyxxx
(PID.TID 0000.0001)     16 vvt......ss.qrrssrqrqpqrrrrrrr.......ssrrstsstusrsuuuvwwwwxxwwvvvuttttsr........yz+zzzxwww
(PID.TID 0000.0001)     15 utss....stt.rrssstttsrrsrstsr.........ssstttssttsuuttuvvvvwxwwwwwuttsssrr......xyyyyxyyxwv
(PID.TID 0000.0001)     14 utts....sstrrssstuuuuuuuuuutt.........stttuutttttttuttttttuvvvvvvutsrqrrr.....vxxwwwwxwvwv
(PID.TID 0000.0001)     13 uuut....ttttttttuuuuuvtuuuuuu.........ttttuutttttttuutsssstttttstsqrqqppp....uwwwvuvvvutvv
(PID.TID 0000.0001)     12 ttttttttttttttttttttttssuuuuutuuut....tttttttttttsssssrrrrrrrqqqqqppppoo.....rvvuuttttttuu
(PID.TID 0000.0001)     11 rqsttttttttuuttttsssssrrstttttttsss..ttttts.tsssrrrrqqqqqppppoonnooooooo....oruttttsssrqrs
(PID.TID 0000.0001)     10 pppqrssrqqrqpqrssrrqqqqqqrrrrrrrrrrs.sssssr.rssrrqqpppppppooooonnnoooonn..moqrrrqqqqqqqqqq
(PID.TID 0000.0001)      9 oonooooooooonnnooooooooooppppppqqqqqrrrqrq.pppqqqqqppppppppppoooooooooll.lmoqqqqppooooopoo
(PID.TID 0000.0001)      8 nnnoonooooooonnnnnnnoooonoonoooppopqqqqqqqppopppqqqpppppppppppppppooopon.lnopppoooonnnnooo
(PID.TID 0000.0001)      7 ooooooooooopponnnooooooonnnnnonnooooooooopppppppoooooooooopppppppppoopqnnmnoooonnnonnnnnno
(PID.TID 0000.0001)      6 oooonnoonnnnooooooooooooonnnnnnnnnnnnnnnnoooopppooooooooooooooppppppppppoooooooonnnnnmnnnn
(PID.TID 0000.0001)      5 oooonnnnnnnnnnnnnnnnnoooooonnnnnnonnnnnnnnnoooooooooooonnnnnnooooooopoooonoooonnnnnnnooooo
(PID.TID 0000.0001)      4 oooonnnooonnnnnnnnnnnnnnoooooonnnooooonnnooooooooppponnnnmmmnnnnmnnoonnnnn..nnnooooooooooo
(PID.TID 0000.0001)      3 ooonnnnnnn............................nnoooooonnooooonnnnnnnoonnnnnnnnmmm..ooopooooooooooo
(PID.TID 0000.0001)      2 ..........................................pppooooonnnnnnoooppppo..nnnn.....qqqpppoooooo...
(PID.TID 0000.0001)      1 ..........................................................................................
(PID.TID 0000.0001) // =======================================================
(PID.TID 0000.0001) // END OF FIELD                                          =
(PID.TID 0000.0001) // =======================================================
(PID.TID 0000.0001) 
(PID.TID 0000.0001) Start initial hydrostatic pressure computation
(PID.TID 0000.0001) Pressure is predetermined for buoyancyRelation OCEANIC
(PID.TID 0000.0001) 
(PID.TID 0000.0001)  MDSREADFIELD: opening file: xx_theta.0000000000.001.001.data
(PID.TID 0000.0001)  MDSREADFIELD: opening file: xx_salt.0000000000.001.001.data
(PID.TID 0000.0001)  MDSREADFIELD: opening file: xx_diffkr.0000000000.001.001.data
(PID.TID 0000.0001)  MDSREADFIELD: opening global file: trenberth_taux.bin
(PID.TID 0000.0001)  MDSREADFIELD: opening global file: trenberth_tauy.bin
(PID.TID 0000.0001)  MDSREADFIELD: opening global file: ncep_qnet.bin
(PID.TID 0000.0001)  MDSREADFIELD: opening global file: lev_sst.bin
(PID.TID 0000.0001)  MDSREADFIELD: opening global file: lev_sss.bin
(PID.TID 0000.0001) // =======================================================
(PID.TID 0000.0001) // Model current state
(PID.TID 0000.0001) // =======================================================
(PID.TID 0000.0001) 
S/R EXTERNAL_FIELDS_LOAD: Reading new data:   12    1         0  0.000000000000E+00
(PID.TID 0000.0001)  MDSREADFIELD: opening global file: trenberth_taux.bin
(PID.TID 0000.0001)  MDSREADFIELD: opening global file: trenberth_taux.bin
(PID.TID 0000.0001)  MDSREADFIELD: opening global file: trenberth_tauy.bin
(PID.TID 0000.0001)  MDSREADFIELD: opening global file: trenberth_tauy.bin
(PID.TID 0000.0001)  MDSREADFIELD: opening global file: ncep_qnet.bin
(PID.TID 0000.0001)  MDSREADFIELD: opening global file: ncep_qnet.bin
(PID.TID 0000.0001)  MDSREADFIELD: opening global file: lev_sst.bin
(PID.TID 0000.0001)  MDSREADFIELD: opening global file: lev_sst.bin
(PID.TID 0000.0001)  MDSREADFIELD: opening global file: lev_sss.bin
(PID.TID 0000.0001)  MDSREADFIELD: opening global file: lev_sss.bin
time,SST,SSS,fu,fv,Q,E-P,i0,i1,a,b =   0.0000E+00  5.3151E-02  3.4364E+01 -4.0500E-02 -6.3753E-02  2.6510E+02  0.0000E+00    12     1  5.0000E-01  5.0000E-01
time,fu0,fu1,fu =   0.0000E+00 -4.5368E-02 -3.5633E-02 -4.0500E-02  5.000000000000000E-01  5.000000000000000E-01
(PID.TID 0000.0001)  MDSREADFIELD: opening file: xx_tauu.0000000000.001.001.data
(PID.TID 0000.0001)  MDSREADFIELD: opening file: xx_tauv.0000000000.001.001.data
(PID.TID 0000.0001)  MDSREADFIELD: opening file: xx_sflux.0000000000.001.001.data
(PID.TID 0000.0001)  MDSREADFIELD: opening file: xx_hflux.0000000000.001.001.data
 cg2d: Sum(rhs),rhsMax =  -5.41233724504764E-16  2.53364304519873E+00
time,SST,SSS,fu,fv,Q,E-P,i0,i1,a,b =   4.3200E+04  8.3327E-02  3.4375E+01 -4.0338E-02 -6.3536E-02  2.6512E+02  0.0000E+00    12     1  5.1667E-01  4.8333E-01
time,fu0,fu1,fu =   4.3200E+04 -4.5368E-02 -3.5633E-02 -4.0338E-02  5.166666666666667E-01  4.833333333333333E-01
 cg2d: Sum(rhs),rhsMax =   2.75682254802234E-14  5.05307478634997E+00
time,SST,SSS,fu,fv,Q,E-P,i0,i1,a,b =   8.6400E+04  1.1350E-01  3.4387E+01 -4.0176E-02 -6.3320E-02  2.6514E+02  0.0000E+00    12     1  5.3333E-01  4.6667E-01
time,fu0,fu1,fu =   8.6400E+04 -4.5368E-02 -3.5633E-02 -4.0176E-02  5.333333333333333E-01  4.666666666666667E-01
 cg2d: Sum(rhs),rhsMax =   6.83758605291018E-14  6.32564766002464E+00
time,SST,SSS,fu,fv,Q,E-P,i0,i1,a,b =   1.2960E+05  1.4368E-01  3.4399E+01 -4.0014E-02 -6.3103E-02  2.6516E+02  0.0000E+00    12     1  5.5000E-01  4.5000E-01
time,fu0,fu1,fu =   1.2960E+05 -4.5368E-02 -3.5633E-02 -4.0014E-02  5.500000000000000E-01  4.500000000000000E-01
 cg2d: Sum(rhs),rhsMax =   8.09179112604141E-14  6.76202107413721E+00
time,SST,SSS,fu,fv,Q,E-P,i0,i1,a,b =   1.7280E+05  1.7385E-01  3.4410E+01 -3.9851E-02 -6.2886E-02  2.6519E+02  0.0000E+00    12     1  5.6667E-01  4.3333E-01
time,fu0,fu1,fu =   1.7280E+05 -4.5368E-02 -3.5633E-02 -3.9851E-02  5.666666666666667E-01  4.333333333333333E-01
 cg2d: Sum(rhs),rhsMax =   9.58816359641901E-14  6.91128535917370E+00
time,SST,SSS,fu,fv,Q,E-P,i0,i1,a,b =   2.1600E+05  2.0403E-01  3.4422E+01 -3.9689E-02 -6.2670E-02  2.6521E+02  0.0000E+00    12     1  5.8333E-01  4.1667E-01
time,fu0,fu1,fu =   2.1600E+05 -4.5368E-02 -3.5633E-02 -3.9689E-02  5.833333333333334E-01  4.166666666666666E-01
 cg2d: Sum(rhs),rhsMax =  -3.21279461368285E-14  6.96038704691245E+00
time,SST,SSS,fu,fv,Q,E-P,i0,i1,a,b =   2.5920E+05  2.3421E-01  3.4434E+01 -3.9527E-02 -6.2453E-02  2.6523E+02  0.0000E+00    12     1  6.0000E-01  4.0000E-01
time,fu0,fu1,fu =   2.5920E+05 -4.5368E-02 -3.5633E-02 -3.9527E-02  6.000000000000000E-01  4.000000000000000E-01
 cg2d: Sum(rhs),rhsMax =  -5.62011374938276E-14  7.26221759046288E+00
time,SST,SSS,fu,fv,Q,E-P,i0,i1,a,b =   3.0240E+05  2.6438E-01  3.4446E+01 -3.9365E-02 -6.2237E-02  2.6525E+02  0.0000E+00    12     1  6.1667E-01  3.8333E-01
time,fu0,fu1,fu =   3.0240E+05 -4.5368E-02 -3.5633E-02 -3.9365E-02  6.166666666666667E-01  3.833333333333333E-01
 cg2d: Sum(rhs),rhsMax =  -1.21171573209261E-13  7.87499194900245E+00
time,SST,SSS,fu,fv,Q,E-P,i0,i1,a,b =   3.4560E+05  2.9456E-01  3.4457E+01 -3.9202E-02 -6.2020E-02  2.6528E+02  0.0000E+00    12     1  6.3333E-01  3.6667E-01
time,fu0,fu1,fu =   3.4560E+05 -4.5368E-02 -3.5633E-02 -3.9202E-02  6.333333333333333E-01  3.666666666666667E-01
 cg2d: Sum(rhs),rhsMax =  -1.09138392767605E-13  8.21213972807561E+00
time,SST,SSS,fu,fv,Q,E-P,i0,i1,a,b =   3.8880E+05  3.2473E-01  3.4469E+01 -3.9040E-02 -6.1804E-02  2.6530E+02  0.0000E+00    12     1  6.5000E-01  3.5000E-01
time,fu0,fu1,fu =   3.8880E+05 -4.5368E-02 -3.5633E-02 -3.9040E-02  6.500000000000000E-01  3.500000000000000E-01
 cg2d: Sum(rhs),rhsMax =  -2.36569444589385E-13  8.31512136376637E+00
time,SST,SSS,fu,fv,Q,E-P,i0,i1,a,b =   4.3200E+05  3.5491E-01  3.4481E+01 -3.8878E-02 -6.1587E-02  2.6532E+02  0.0000E+00    12     1  6.6667E-01  3.3333E-01
time,fu0,fu1,fu =   4.3200E+05 -4.5368E-02 -3.5633E-02 -3.8878E-02  6.666666666666666E-01  3.333333333333334E-01
 cg2d: Sum(rhs),rhsMax =  -6.37601950403965E-13  8.25257067290291E+00
time,SST,SSS,fu,fv,Q,E-P,i0,i1,a,b =   4.7520E+05  3.8508E-01  3.4492E+01 -3.8716E-02 -6.1371E-02  2.6534E+02  0.0000E+00    12     1  6.8333E-01  3.1667E-01
time,fu0,fu1,fu =   4.7520E+05 -4.5368E-02 -3.5633E-02 -3.8716E-02  6.833333333333333E-01  3.166666666666667E-01
 cg2d: Sum(rhs),rhsMax =  -7.34925141576692E-13  8.09293762885828E+00
time,SST,SSS,fu,fv,Q,E-P,i0,i1,a,b =   5.1840E+05  4.1526E-01  3.4504E+01 -3.8553E-02 -6.1154E-02  2.6537E+02  0.0000E+00    12     1  7.0000E-01  3.0000E-01
time,fu0,fu1,fu =   5.1840E+05 -4.5368E-02 -3.5633E-02 -3.8553E-02  7.000000000000000E-01  3.000000000000000E-01
 cg2d: Sum(rhs),rhsMax =  -9.44378256151346E-13  8.55637530605071E+00
time,SST,SSS,fu,fv,Q,E-P,i0,i1,a,b =   5.6160E+05  4.4544E-01  3.4516E+01 -3.8391E-02 -6.0938E-02  2.6539E+02  0.0000E+00    12     1  7.1667E-01  2.8333E-01
time,fu0,fu1,fu =   5.6160E+05 -4.5368E-02 -3.5633E-02 -3.8391E-02  7.166666666666667E-01  2.833333333333333E-01
 cg2d: Sum(rhs),rhsMax =  -8.97908483676879E-13  9.25214403713224E+00
time,SST,SSS,fu,fv,Q,E-P,i0,i1,a,b =   6.0480E+05  4.7561E-01  3.4527E+01 -3.8229E-02 -6.0721E-02  2.6541E+02  0.0000E+00    12     1  7.3333E-01  2.6667E-01
time,fu0,fu1,fu =   6.0480E+05 -4.5368E-02 -3.5633E-02 -3.8229E-02  7.333333333333333E-01  2.666666666666667E-01
 cg2d: Sum(rhs),rhsMax =  -5.69594718613509E-13  9.75412758742916E+00
time,SST,SSS,fu,fv,Q,E-P,i0,i1,a,b =   6.4800E+05  5.0579E-01  3.4539E+01 -3.8067E-02 -6.0505E-02  2.6543E+02  0.0000E+00    12     1  7.5000E-01  2.5000E-01
time,fu0,fu1,fu =   6.4800E+05 -4.5368E-02 -3.5633E-02 -3.8067E-02  7.500000000000000E-01  2.500000000000000E-01
 cg2d: Sum(rhs),rhsMax =  -6.11273184847327E-13  1.00472791850534E+01
time,SST,SSS,fu,fv,Q,E-P,i0,i1,a,b =   6.9120E+05  5.3596E-01  3.4551E+01 -3.7904E-02 -6.0288E-02  2.6546E+02  0.0000E+00    12     1  7.6667E-01  2.3333E-01
time,fu0,fu1,fu =   6.9120E+05 -4.5368E-02 -3.5633E-02 -3.7904E-02  7.666666666666667E-01  2.333333333333333E-01
 cg2d: Sum(rhs),rhsMax =  -7.87524559453523E-13  1.01282964952822E+01
time,SST,SSS,fu,fv,Q,E-P,i0,i1,a,b =   7.3440E+05  5.6614E-01  3.4563E+01 -3.7742E-02 -6.0072E-02  2.6548E+02  0.0000E+00    12     1  7.8333E-01  2.1667E-01
time,fu0,fu1,fu =   7.3440E+05 -4.5368E-02 -3.5633E-02 -3.7742E-02  7.833333333333333E-01  2.166666666666667E-01
 cg2d: Sum(rhs),rhsMax =  -6.46880118915227E-13  1.00066236471322E+01
time,SST,SSS,fu,fv,Q,E-P,i0,i1,a,b =   7.7760E+05  5.9632E-01  3.4574E+01 -3.7580E-02 -5.9855E-02  2.6550E+02  0.0000E+00    12     1  8.0000E-01  2.0000E-01
time,fu0,fu1,fu =   7.7760E+05 -4.5368E-02 -3.5633E-02 -3.7580E-02  8.000000000000000E-01  2.000000000000000E-01
 cg2d: Sum(rhs),rhsMax =  -9.14761322245994E-13  9.70409645617096E+00
time,SST,SSS,fu,fv,Q,E-P,i0,i1,a,b =   8.2080E+05  6.2649E-01  3.4586E+01 -3.7418E-02 -5.9638E-02  2.6552E+02  0.0000E+00    12     1  8.1667E-01  1.8333E-01
time,fu0,fu1,fu =   8.2080E+05 -4.5368E-02 -3.5633E-02 -3.7418E-02  8.166666666666667E-01  1.833333333333333E-01
 cg2d: Sum(rhs),rhsMax =  -1.26726233673491E-12  9.47667283578010E+00
time,SST,SSS,fu,fv,Q,E-P,i0,i1,a,b =   8.6400E+05  6.5667E-01  3.4598E+01 -3.7255E-02 -5.9422E-02  2.6555E+02  0.0000E+00    12     1  8.3333E-01  1.6667E-01
time,fu0,fu1,fu =   8.6400E+05 -4.5368E-02 -3.5633E-02 -3.7255E-02  8.333333333333334E-01  1.666666666666666E-01
 cg2d: Sum(rhs),rhsMax =  -5.99010424595647E-13  1.03748401635911E+01
time,SST,SSS,fu,fv,Q,E-P,i0,i1,a,b =   9.0720E+05  6.8684E-01  3.4609E+01 -3.7093E-02 -5.9205E-02  2.6557E+02  0.0000E+00    12     1  8.5000E-01  1.5000E-01
time,fu0,fu1,fu =   9.0720E+05 -4.5368E-02 -3.5633E-02 -3.7093E-02  8.500000000000000E-01  1.500000000000000E-01
 cg2d: Sum(rhs),rhsMax =  -1.14764447944893E-12  1.11482726022296E+01
time,SST,SSS,fu,fv,Q,E-P,i0,i1,a,b =   9.5040E+05  7.1702E-01  3.4621E+01 -3.6931E-02 -5.8989E-02  2.6559E+02  0.0000E+00    12     1  8.6667E-01  1.3333E-01
time,fu0,fu1,fu =   9.5040E+05 -4.5368E-02 -3.5633E-02 -3.6931E-02  8.666666666666667E-01  1.333333333333333E-01
 cg2d: Sum(rhs),rhsMax =  -6.44918146663898E-13  1.17644190527000E+01
time,SST,SSS,fu,fv,Q,E-P,i0,i1,a,b =   9.9360E+05  7.4719E-01  3.4633E+01 -3.6769E-02 -5.8772E-02  2.6561E+02  0.0000E+00    12     1  8.8333E-01  1.1667E-01
time,fu0,fu1,fu =   9.9360E+05 -4.5368E-02 -3.5633E-02 -3.6769E-02  8.833333333333333E-01  1.166666666666667E-01
 cg2d: Sum(rhs),rhsMax =  -7.97984942013663E-13  1.21959720875453E+01
time,SST,SSS,fu,fv,Q,E-P,i0,i1,a,b =   1.0368E+06  7.7737E-01  3.4644E+01 -3.6606E-02 -5.8556E-02  2.6564E+02  0.0000E+00    12     1  9.0000E-01  1.0000E-01
time,fu0,fu1,fu =   1.0368E+06 -4.5368E-02 -3.5633E-02 -3.6606E-02  9.000000000000000E-01  9.999999999999998E-02
 cg2d: Sum(rhs),rhsMax =  -9.61489568518381E-13  1.24221987652468E+01
time,SST,SSS,fu,fv,Q,E-P,i0,i1,a,b =   1.0800E+06  8.0755E-01  3.4656E+01 -3.6444E-02 -5.8339E-02  2.6566E+02  0.0000E+00    12     1  9.1667E-01  8.3333E-02
time,fu0,fu1,fu =   1.0800E+06 -4.5368E-02 -3.5633E-02 -3.6444E-02  9.166666666666666E-01  8.333333333333337E-02
 cg2d: Sum(rhs),rhsMax =  -1.13871065354765E-12  1.24298971531288E+01
time,SST,SSS,fu,fv,Q,E-P,i0,i1,a,b =   1.1232E+06  8.3772E-01  3.4668E+01 -3.6282E-02 -5.8123E-02  2.6568E+02  0.0000E+00    12     1  9.3333E-01  6.6667E-02
time,fu0,fu1,fu =   1.1232E+06 -4.5368E-02 -3.5633E-02 -3.6282E-02  9.333333333333333E-01  6.666666666666665E-02
 cg2d: Sum(rhs),rhsMax =  -1.07396383453029E-12  1.22139653314688E+01
time,SST,SSS,fu,fv,Q,E-P,i0,i1,a,b =   1.1664E+06  8.6790E-01  3.4679E+01 -3.6120E-02 -5.7906E-02  2.6570E+02  0.0000E+00    12     1  9.5000E-01  5.0000E-02
time,fu0,fu1,fu =   1.1664E+06 -4.5368E-02 -3.5633E-02 -3.6120E-02  9.500000000000000E-01  5.000000000000004E-02
 cg2d: Sum(rhs),rhsMax =  -9.55707735172950E-13  1.17775992285683E+01
time,SST,SSS,fu,fv,Q,E-P,i0,i1,a,b =   1.2096E+06  8.9807E-01  3.4691E+01 -3.5957E-02 -5.7690E-02  2.6573E+02  0.0000E+00    12     1  9.6667E-01  3.3333E-02
time,fu0,fu1,fu =   1.2096E+06 -4.5368E-02 -3.5633E-02 -3.5957E-02  9.666666666666667E-01  3.333333333333333E-02
 cg2d: Sum(rhs),rhsMax =  -1.24854640515260E-12  1.11321543548344E+01
time,SST,SSS,fu,fv,Q,E-P,i0,i1,a,b =   1.2528E+06  9.2825E-01  3.4703E+01 -3.5795E-02 -5.7473E-02  2.6575E+02  0.0000E+00    12     1  9.8333E-01  1.6667E-02
time,fu0,fu1,fu =   1.2528E+06 -4.5368E-02 -3.5633E-02 -3.5795E-02  9.833333333333333E-01  1.666666666666672E-02
 cg2d: Sum(rhs),rhsMax =  -1.42339265374325E-12  1.02967139425420E+01
S/R EXTERNAL_FIELDS_LOAD: Reading new data:    1    2        30  1.296000000000E+06
(PID.TID 0000.0001)  MDSREADFIELD: opening global file: trenberth_taux.bin
(PID.TID 0000.0001)  MDSREADFIELD: opening global file: trenberth_taux.bin
(PID.TID 0000.0001)  MDSREADFIELD: opening global file: trenberth_tauy.bin
(PID.TID 0000.0001)  MDSREADFIELD: opening global file: trenberth_tauy.bin
(PID.TID 0000.0001)  MDSREADFIELD: opening global file: ncep_qnet.bin
(PID.TID 0000.0001)  MDSREADFIELD: opening global file: ncep_qnet.bin
(PID.TID 0000.0001)  MDSREADFIELD: opening global file: lev_sst.bin
(PID.TID 0000.0001)  MDSREADFIELD: opening global file: lev_sst.bin
(PID.TID 0000.0001)  MDSREADFIELD: opening global file: lev_sss.bin
(PID.TID 0000.0001)  MDSREADFIELD: opening global file: lev_sss.bin
time,SST,SSS,fu,fv,Q,E-P,i0,i1,a,b =   1.2960E+06  9.5843E-01  3.4715E+01 -3.5633E-02 -5.7257E-02  2.6577E+02  0.0000E+00     1     2  0.0000E+00  1.0000E+00
time,fu0,fu1,fu =   1.2960E+06 -3.5633E-02 -1.4435E-02 -3.5633E-02  0.000000000000000E+00  1.000000000000000E+00
 cg2d: Sum(rhs),rhsMax =  -1.52411416820541E-12  9.29740447868462E+00
time,SST,SSS,fu,fv,Q,E-P,i0,i1,a,b =   1.3392E+06  9.3359E-01  3.4710E+01 -3.5280E-02 -5.6596E-02  2.6535E+02  0.0000E+00     1     2  1.6667E-02  9.8333E-01
time,fu0,fu1,fu =   1.3392E+06 -3.5633E-02 -1.4435E-02 -3.5280E-02  1.666666666666667E-02  9.833333333333333E-01
 cg2d: Sum(rhs),rhsMax =  -1.50814777333252E-12  9.11143530542104E+00
time,SST,SSS,fu,fv,Q,E-P,i0,i1,a,b =   1.3824E+06  9.0875E-01  3.4705E+01 -3.4926E-02 -5.5936E-02  2.6493E+02  0.0000E+00     1     2  3.3333E-02  9.6667E-01
time,fu0,fu1,fu =   1.3824E+06 -3.5633E-02 -1.4435E-02 -3.4926E-02  3.333333333333333E-02  9.666666666666667E-01
 cg2d: Sum(rhs),rhsMax =  -1.09937059455945E-12  9.23484344308868E+00
time,SST,SSS,fu,fv,Q,E-P,i0,i1,a,b =   1.4256E+06  8.8391E-01  3.4700E+01 -3.4573E-02 -5.5276E-02  2.6451E+02  0.0000E+00     1     2  5.0000E-02  9.5000E-01
time,fu0,fu1,fu =   1.4256E+06 -3.5633E-02 -1.4435E-02 -3.4573E-02  5.000000000000000E-02  9.500000000000000E-01
 cg2d: Sum(rhs),rhsMax =  -1.22524906887023E-12  9.27184126245128E+00
time,SST,SSS,fu,fv,Q,E-P,i0,i1,a,b =   1.4688E+06  8.5907E-01  3.4695E+01 -3.4220E-02 -5.4615E-02  2.6408E+02  0.0000E+00     1     2  6.6667E-02  9.3333E-01
time,fu0,fu1,fu =   1.4688E+06 -3.5633E-02 -1.4435E-02 -3.4220E-02  6.666666666666667E-02  9.333333333333333E-01
 cg2d: Sum(rhs),rhsMax =  -1.15812220924383E-12  9.21972116015675E+00
time,SST,SSS,fu,fv,Q,E-P,i0,i1,a,b =   1.5120E+06  8.3424E-01  3.4690E+01 -3.3866E-02 -5.3955E-02  2.6366E+02  0.0000E+00     1     2  8.3333E-02  9.1667E-01
time,fu0,fu1,fu =   1.5120E+06 -3.5633E-02 -1.4435E-02 -3.3866E-02  8.333333333333333E-02  9.166666666666666E-01
 cg2d: Sum(rhs),rhsMax =  -1.38793143644733E-12  9.07797566457558E+00
time,SST,SSS,fu,fv,Q,E-P,i0,i1,a,b =   1.5552E+06  8.0940E-01  3.4685E+01 -3.3513E-02 -5.3295E-02  2.6324E+02  0.0000E+00     1     2  1.0000E-01  9.0000E-01
time,fu0,fu1,fu =   1.5552E+06 -3.5633E-02 -1.4435E-02 -3.3513E-02  1.000000000000000E-01  9.000000000000000E-01
 cg2d: Sum(rhs),rhsMax =  -6.97240876146310E-13  8.84823989188512E+00
time,SST,SSS,fu,fv,Q,E-P,i0,i1,a,b =   1.5984E+06  7.8456E-01  3.4680E+01 -3.3160E-02 -5.2634E-02  2.6282E+02  0.0000E+00     1     2  1.1667E-01  8.8333E-01
time,fu0,fu1,fu =   1.5984E+06 -3.5633E-02 -1.4435E-02 -3.3160E-02  1.166666666666667E-01  8.833333333333333E-01
 cg2d: Sum(rhs),rhsMax =  -8.99585961278149E-13  8.53412826919105E+00
time,SST,SSS,fu,fv,Q,E-P,i0,i1,a,b =   1.6416E+06  7.5972E-01  3.4675E+01 -3.2807E-02 -5.1974E-02  2.6240E+02  0.0000E+00     1     2  1.3333E-01  8.6667E-01
time,fu0,fu1,fu =   1.6416E+06 -3.5633E-02 -1.4435E-02 -3.2807E-02  1.333333333333333E-01  8.666666666666667E-01
 cg2d: Sum(rhs),rhsMax =  -7.04145075580698E-13  8.14100489343559E+00
time,SST,SSS,fu,fv,Q,E-P,i0,i1,a,b =   1.6848E+06  7.3488E-01  3.4671E+01 -3.2453E-02 -5.1313E-02  2.6198E+02  0.0000E+00     1     2  1.5000E-01  8.5000E-01
time,fu0,fu1,fu =   1.6848E+06 -3.5633E-02 -1.4435E-02 -3.2453E-02  1.500000000000000E-01  8.500000000000000E-01
 cg2d: Sum(rhs),rhsMax =  -1.17621190565131E-12  7.67572633379955E+00
time,SST,SSS,fu,fv,Q,E-P,i0,i1,a,b =   1.7280E+06  7.1005E-01  3.4666E+01 -3.2100E-02 -5.0653E-02  2.6156E+02  0.0000E+00     1     2  1.6667E-01  8.3333E-01
time,fu0,fu1,fu =   1.7280E+06 -3.5633E-02 -1.4435E-02 -3.2100E-02  1.666666666666667E-01  8.333333333333334E-01
 cg2d: Sum(rhs),rhsMax =  -6.29156449161172E-13  7.14638844555284E+00
time,SST,SSS,fu,fv,Q,E-P,i0,i1,a,b =   1.7712E+06  6.8521E-01  3.4661E+01 -3.1747E-02 -4.9993E-02  2.6113E+02  0.0000E+00     1     2  1.8333E-01  8.1667E-01
time,fu0,fu1,fu =   1.7712E+06 -3.5633E-02 -1.4435E-02 -3.1747E-02  1.833333333333333E-01  8.166666666666667E-01
 cg2d: Sum(rhs),rhsMax =  -5.65082702852493E-13  7.16032444197673E+00
time,SST,SSS,fu,fv,Q,E-P,i0,i1,a,b =   1.8144E+06  6.6037E-01  3.4656E+01 -3.1393E-02 -4.9332E-02  2.6071E+02  0.0000E+00     1     2  2.0000E-01  8.0000E-01
time,fu0,fu1,fu =   1.8144E+06 -3.5633E-02 -1.4435E-02 -3.1393E-02  2.000000000000000E-01  8.000000000000000E-01
 cg2d: Sum(rhs),rhsMax =  -6.89705237366667E-13  7.19604412881160E+00
time,SST,SSS,fu,fv,Q,E-P,i0,i1,a,b =   1.8576E+06  6.3553E-01  3.4651E+01 -3.1040E-02 -4.8672E-02  2.6029E+02  0.0000E+00     1     2  2.1667E-01  7.8333E-01
time,fu0,fu1,fu =   1.8576E+06 -3.5633E-02 -1.4435E-02 -3.1040E-02  2.166666666666667E-01  7.833333333333333E-01
 cg2d: Sum(rhs),rhsMax =  -2.34784414132605E-13  7.21623311596628E+00
time,SST,SSS,fu,fv,Q,E-P,i0,i1,a,b =   1.9008E+06  6.1069E-01  3.4646E+01 -3.0687E-02 -4.8012E-02  2.5987E+02  0.0000E+00     1     2  2.3333E-01  7.6667E-01
time,fu0,fu1,fu =   1.9008E+06 -3.5633E-02 -1.4435E-02 -3.0687E-02  2.333333333333333E-01  7.666666666666666E-01
 cg2d: Sum(rhs),rhsMax =  -5.69634617253456E-13  7.36407460534508E+00
time,SST,SSS,fu,fv,Q,E-P,i0,i1,a,b =   1.9440E+06  5.8585E-01  3.4641E+01 -3.0333E-02 -4.7351E-02  2.5945E+02  0.0000E+00     1     2  2.5000E-01  7.5000E-01
time,fu0,fu1,fu =   1.9440E+06 -3.5633E-02 -1.4435E-02 -3.0333E-02  2.500000000000000E-01  7.500000000000000E-01
 cg2d: Sum(rhs),rhsMax =  -1.55174484373077E-13  7.63412024103095E+00
time,SST,SSS,fu,fv,Q,E-P,i0,i1,a,b =   1.9872E+06  5.6102E-01  3.4636E+01 -2.9980E-02 -4.6691E-02  2.5903E+02  0.0000E+00     1     2  2.6667E-01  7.3333E-01
time,fu0,fu1,fu =   1.9872E+06 -3.5633E-02 -1.4435E-02 -2.9980E-02  2.666666666666667E-01  7.333333333333334E-01
 cg2d: Sum(rhs),rhsMax =   1.36349265211777E-14  7.83758000475891E+00
time,SST,SSS,fu,fv,Q,E-P,i0,i1,a,b =   2.0304E+06  5.3618E-01  3.4631E+01 -2.9627E-02 -4.6031E-02  2.5861E+02  0.0000E+00     1     2  2.8333E-01  7.1667E-01
time,fu0,fu1,fu =   2.0304E+06 -3.5633E-02 -1.4435E-02 -2.9627E-02  2.833333333333333E-01  7.166666666666667E-01
 cg2d: Sum(rhs),rhsMax =  -3.85816378845050E-13  7.97661680932737E+00
time,SST,SSS,fu,fv,Q,E-P,i0,i1,a,b =   2.0736E+06  5.1134E-01  3.4627E+01 -2.9273E-02 -4.5370E-02  2.5818E+02  0.0000E+00     1     2  3.0000E-01  7.0000E-01
time,fu0,fu1,fu =   2.0736E+06 -3.5633E-02 -1.4435E-02 -2.9273E-02  3.000000000000000E-01  7.000000000000000E-01
 cg2d: Sum(rhs),rhsMax =   3.86218834691476E-14  8.05769560441829E+00
time,SST,SSS,fu,fv,Q,E-P,i0,i1,a,b =   2.1168E+06  4.8650E-01  3.4622E+01 -2.8920E-02 -4.4710E-02  2.5776E+02  0.0000E+00     1     2  3.1667E-01  6.8333E-01
time,fu0,fu1,fu =   2.1168E+06 -3.5633E-02 -1.4435E-02 -2.8920E-02  3.166666666666667E-01  6.833333333333333E-01
 cg2d: Sum(rhs),rhsMax =   3.03909675203329E-13  8.09041726285558E+00
time,SST,SSS,fu,fv,Q,E-P,i0,i1,a,b =   2.1600E+06  4.6166E-01  3.4617E+01 -2.8567E-02 -4.4050E-02  2.5734E+02  0.0000E+00     1     2  3.3333E-01  6.6667E-01
time,fu0,fu1,fu =   2.1600E+06 -3.5633E-02 -1.4435E-02 -2.8567E-02  3.333333333333333E-01  6.666666666666667E-01
 cg2d: Sum(rhs),rhsMax =   1.32713284806130E-13  8.08616467736041E+00
time,SST,SSS,fu,fv,Q,E-P,i0,i1,a,b =   2.2032E+06  4.3683E-01  3.4612E+01 -2.8214E-02 -4.3389E-02  2.5692E+02  0.0000E+00     1     2  3.5000E-01  6.5000E-01
time,fu0,fu1,fu =   2.2032E+06 -3.5633E-02 -1.4435E-02 -2.8214E-02  3.500000000000000E-01  6.500000000000000E-01
 cg2d: Sum(rhs),rhsMax =   3.63570284989123E-13  8.05674135563685E+00
time,SST,SSS,fu,fv,Q,E-P,i0,i1,a,b =   2.2464E+06  4.1199E-01  3.4607E+01 -2.7860E-02 -4.2729E-02  2.5650E+02  0.0000E+00     1     2  3.6667E-01  6.3333E-01
time,fu0,fu1,fu =   2.2464E+06 -3.5633E-02 -1.4435E-02 -2.7860E-02  3.666666666666666E-01  6.333333333333333E-01
 cg2d: Sum(rhs),rhsMax =  -8.37940827835837E-14  8.18299935291959E+00
time,SST,SSS,fu,fv,Q,E-P,i0,i1,a,b =   2.2896E+06  3.8715E-01  3.4602E+01 -2.7507E-02 -4.2069E-02  2.5608E+02  0.0000E+00     1     2  3.8333E-01  6.1667E-01
time,fu0,fu1,fu =   2.2896E+06 -3.5633E-02 -1.4435E-02 -2.7507E-02  3.833333333333334E-01  6.166666666666667E-01
 cg2d: Sum(rhs),rhsMax =   3.18606252491804E-13  9.40876998363914E+00
time,SST,SSS,fu,fv,Q,E-P,i0,i1,a,b =   2.3328E+06  3.6231E-01  3.4597E+01 -2.7154E-02 -4.1408E-02  2.5565E+02  0.0000E+00     1     2  4.0000E-01  6.0000E-01
time,fu0,fu1,fu =   2.3328E+06 -3.5633E-02 -1.4435E-02 -2.7154E-02  4.000000000000000E-01  6.000000000000000E-01
 cg2d: Sum(rhs),rhsMax =   6.34860219950184E-13  1.05293283679571E+01
time,SST,SSS,fu,fv,Q,E-P,i0,i1,a,b =   2.3760E+06  3.3747E-01  3.4592E+01 -2.6800E-02 -4.0748E-02  2.5523E+02  0.0000E+00     1     2  4.1667E-01  5.8333E-01
time,fu0,fu1,fu =   2.3760E+06 -3.5633E-02 -1.4435E-02 -2.6800E-02  4.166666666666667E-01  5.833333333333333E-01
 cg2d: Sum(rhs),rhsMax =   1.31566285643814E-12  1.15144716930722E+01
time,SST,SSS,fu,fv,Q,E-P,i0,i1,a,b =   2.4192E+06  3.1264E-01  3.4587E+01 -2.6447E-02 -4.0088E-02  2.5481E+02  0.0000E+00     1     2  4.3333E-01  5.6667E-01
time,fu0,fu1,fu =   2.4192E+06 -3.5633E-02 -1.4435E-02 -2.6447E-02  4.333333333333333E-01  5.666666666666667E-01
 cg2d: Sum(rhs),rhsMax =   1.37593408888748E-12  1.23395348365961E+01
time,SST,SSS,fu,fv,Q,E-P,i0,i1,a,b =   2.4624E+06  2.8780E-01  3.4582E+01 -2.6094E-02 -3.9427E-02  2.5439E+02  0.0000E+00     1     2  4.5000E-01  5.5000E-01
time,fu0,fu1,fu =   2.4624E+06 -3.5633E-02 -1.4435E-02 -2.6094E-02  4.500000000000000E-01  5.500000000000000E-01
 cg2d: Sum(rhs),rhsMax =   1.54065649127233E-12  1.29859659583269E+01
time,SST,SSS,fu,fv,Q,E-P,i0,i1,a,b =   2.5056E+06  2.6296E-01  3.4578E+01 -2.5740E-02 -3.8767E-02  2.5397E+02  0.0000E+00     1     2  4.6667E-01  5.3333E-01
time,fu0,fu1,fu =   2.5056E+06 -3.5633E-02 -1.4435E-02 -2.5740E-02  4.666666666666667E-01  5.333333333333333E-01
 cg2d: Sum(rhs),rhsMax =   1.85711168665392E-12  1.34416466565062E+01
time,SST,SSS,fu,fv,Q,E-P,i0,i1,a,b =   2.5488E+06  2.3812E-01  3.4573E+01 -2.5387E-02 -3.8106E-02  2.5355E+02  0.0000E+00     1     2  4.8333E-01  5.1667E-01
time,fu0,fu1,fu =   2.5488E+06 -3.5633E-02 -1.4435E-02 -2.5387E-02  4.833333333333333E-01  5.166666666666666E-01
 cg2d: Sum(rhs),rhsMax =   2.24852081398552E-12  1.37009644382626E+01
time,SST,SSS,fu,fv,Q,E-P,i0,i1,a,b =   2.5920E+06  2.1328E-01  3.4568E+01 -2.5034E-02 -3.7446E-02  2.5313E+02  0.0000E+00     1     2  5.0000E-01  5.0000E-01
time,fu0,fu1,fu =   2.5920E+06 -3.5633E-02 -1.4435E-02 -2.5034E-02  5.000000000000000E-01  5.000000000000000E-01
 cg2d: Sum(rhs),rhsMax =   2.82331102940958E-12  1.37646542198198E+01
time,SST,SSS,fu,fv,Q,E-P,i0,i1,a,b =   2.6352E+06  1.8845E-01  3.4563E+01 -2.4681E-02 -3.6786E-02  2.5270E+02  0.0000E+00     1     2  5.1667E-01  4.8333E-01
time,fu0,fu1,fu =   2.6352E+06 -3.5633E-02 -1.4435E-02 -2.4681E-02  5.166666666666667E-01  4.833333333333333E-01
 cg2d: Sum(rhs),rhsMax =   2.46522940949845E-12  1.36394326347117E+01
time,SST,SSS,fu,fv,Q,E-P,i0,i1,a,b =   2.6784E+06  1.6361E-01  3.4558E+01 -2.4327E-02 -3.6125E-02  2.5228E+02  0.0000E+00     1     2  5.3333E-01  4.6667E-01
time,fu0,fu1,fu =   2.6784E+06 -3.5633E-02 -1.4435E-02 -2.4327E-02  5.333333333333333E-01  4.666666666666667E-01
 cg2d: Sum(rhs),rhsMax =   2.63640498321394E-12  1.33374541492806E+01
time,SST,SSS,fu,fv,Q,E-P,i0,i1,a,b =   2.7216E+06  1.3877E-01  3.4553E+01 -2.3974E-02 -3.5465E-02  2.5186E+02  0.0000E+00     1     2  5.5000E-01  4.5000E-01
time,fu0,fu1,fu =   2.7216E+06 -3.5633E-02 -1.4435E-02 -2.3974E-02  5.500000000000000E-01  4.500000000000000E-01
 cg2d: Sum(rhs),rhsMax =   2.92319640715633E-12  1.28756215131616E+01
time,SST,SSS,fu,fv,Q,E-P,i0,i1,a,b =   2.7648E+06  1.1393E-01  3.4548E+01 -2.3621E-02 -3.4805E-02  2.5144E+02  0.0000E+00     1     2  5.6667E-01  4.3333E-01
time,fu0,fu1,fu =   2.7648E+06 -3.5633E-02 -1.4435E-02 -2.3621E-02  5.666666666666667E-01  4.333333333333333E-01
 cg2d: Sum(rhs),rhsMax =   3.44275996599919E-12  1.22747850940698E+01
time,SST,SSS,fu,fv,Q,E-P,i0,i1,a,b =   2.8080E+06  8.9094E-02  3.4543E+01 -2.3267E-02 -3.4144E-02  2.5102E+02  0.0000E+00     1     2  5.8333E-01  4.1667E-01
time,fu0,fu1,fu =   2.8080E+06 -3.5633E-02 -1.4435E-02 -2.3267E-02  5.833333333333334E-01  4.166666666666666E-01
 cg2d: Sum(rhs),rhsMax =   3.98293203973665E-12  1.15588663470787E+01
time,SST,SSS,fu,fv,Q,E-P,i0,i1,a,b =   2.8512E+06  6.4256E-02  3.4538E+01 -2.2914E-02 -3.3484E-02  2.5060E+02  0.0000E+00     1     2  6.0000E-01  4.0000E-01
time,fu0,fu1,fu =   2.8512E+06 -3.5633E-02 -1.4435E-02 -2.2914E-02  6.000000000000000E-01  4.000000000000000E-01
 cg2d: Sum(rhs),rhsMax =   4.00560140612072E-12  1.07539402143608E+01
time,SST,SSS,fu,fv,Q,E-P,i0,i1,a,b =   2.8944E+06  3.9418E-02  3.4534E+01 -2.2561E-02 -3.2824E-02  2.5018E+02  0.0000E+00     1     2  6.1667E-01  3.8333E-01
time,fu0,fu1,fu =   2.8944E+06 -3.5633E-02 -1.4435E-02 -2.2561E-02  6.166666666666667E-01  3.833333333333333E-01
 cg2d: Sum(rhs),rhsMax =   3.57047724719450E-12  9.88730978154407E+00
time,SST,SSS,fu,fv,Q,E-P,i0,i1,a,b =   2.9376E+06  1.4580E-02  3.4529E+01 -2.2207E-02 -3.2163E-02  2.4975E+02  0.0000E+00     1     2  6.3333E-01  3.6667E-01
time,fu0,fu1,fu =   2.9376E+06 -3.5633E-02 -1.4435E-02 -2.2207E-02  6.333333333333333E-01  3.666666666666667E-01
 cg2d: Sum(rhs),rhsMax =   4.07406053337667E-12  8.98660414994470E+00
time,SST,SSS,fu,fv,Q,E-P,i0,i1,a,b =   2.9808E+06 -1.0258E-02  3.4524E+01 -2.1854E-02 -3.1503E-02  2.4933E+02  0.0000E+00     1     2  6.5000E-01  3.5000E-01
time,fu0,fu1,fu =   2.9808E+06 -3.5633E-02 -1.4435E-02 -2.1854E-02  6.500000000000000E-01  3.500000000000000E-01
 cg2d: Sum(rhs),rhsMax =   3.30098448575455E-12  8.07892732947622E+00
time,SST,SSS,fu,fv,Q,E-P,i0,i1,a,b =   3.0240E+06 -3.5096E-02  3.4519E+01 -2.1501E-02 -3.0843E-02  2.4891E+02  0.0000E+00     1     2  6.6667E-01  3.3333E-01
time,fu0,fu1,fu =   3.0240E+06 -3.5633E-02 -1.4435E-02 -2.1501E-02  6.666666666666666E-01  3.333333333333334E-01
 cg2d: Sum(rhs),rhsMax =   3.30829807992927E-12  7.98205142419796E+00
time,SST,SSS,fu,fv,Q,E-P,i0,i1,a,b =   3.0672E+06 -5.9934E-02  3.4514E+01 -2.1147E-02 -3.0182E-02  2.4849E+02  0.0000E+00     1     2  6.8333E-01  3.1667E-01
time,fu0,fu1,fu =   3.0672E+06 -3.5633E-02 -1.4435E-02 -2.1147E-02  6.833333333333333E-01  3.166666666666667E-01
 cg2d: Sum(rhs),rhsMax =   3.06388248105804E-12  8.00388445176893E+00
time,SST,SSS,fu,fv,Q,E-P,i0,i1,a,b =   3.1104E+06 -8.4772E-02  3.4509E+01 -2.0794E-02 -2.9522E-02  2.4807E+02  0.0000E+00     1     2  7.0000E-01  3.0000E-01
time,fu0,fu1,fu =   3.1104E+06 -3.5633E-02 -1.4435E-02 -2.0794E-02  7.000000000000000E-01  3.000000000000000E-01
 cg2d: Sum(rhs),rhsMax =   3.45710959859247E-12  8.02911816390620E+00
time,SST,SSS,fu,fv,Q,E-P,i0,i1,a,b =   3.1536E+06 -1.0961E-01  3.4504E+01 -2.0441E-02 -2.8862E-02  2.4765E+02  0.0000E+00     1     2  7.1667E-01  2.8333E-01
time,fu0,fu1,fu =   3.1536E+06 -3.5633E-02 -1.4435E-02 -2.0441E-02  7.166666666666667E-01  2.833333333333333E-01
 cg2d: Sum(rhs),rhsMax =   2.84879064782473E-12  8.49105135620084E+00
time,SST,SSS,fu,fv,Q,E-P,i0,i1,a,b =   3.1968E+06 -1.3445E-01  3.4499E+01 -2.0088E-02 -2.8201E-02  2.4722E+02  0.0000E+00     1     2  7.3333E-01  2.6667E-01
time,fu0,fu1,fu =   3.1968E+06 -3.5633E-02 -1.4435E-02 -2.0088E-02  7.333333333333333E-01  2.666666666666667E-01
 cg2d: Sum(rhs),rhsMax =   2.63845195691559E-12  8.90375479954424E+00
time,SST,SSS,fu,fv,Q,E-P,i0,i1,a,b =   3.2400E+06 -1.5929E-01  3.4494E+01 -1.9734E-02 -2.7541E-02  2.4680E+02  0.0000E+00     1     2  7.5000E-01  2.5000E-01
time,fu0,fu1,fu =   3.2400E+06 -3.5633E-02 -1.4435E-02 -1.9734E-02  7.500000000000000E-01  2.500000000000000E-01
 cg2d: Sum(rhs),rhsMax =   2.44720216313610E-12  9.21995790950385E+00
time,SST,SSS,fu,fv,Q,E-P,i0,i1,a,b =   3.2832E+06 -1.8412E-01  3.4490E+01 -1.9381E-02 -2.6880E-02  2.4638E+02  0.0000E+00     1     2  7.6667E-01  2.3333E-01
time,fu0,fu1,fu =   3.2832E+06 -3.5633E-02 -1.4435E-02 -1.9381E-02  7.666666666666667E-01  2.333333333333333E-01
 cg2d: Sum(rhs),rhsMax =   2.53246729142731E-12  9.43408931072089E+00
time,SST,SSS,fu,fv,Q,E-P,i0,i1,a,b =   3.3264E+06 -2.0896E-01  3.4485E+01 -1.9028E-02 -2.6220E-02  2.4596E+02  0.0000E+00     1     2  7.8333E-01  2.1667E-01
time,fu0,fu1,fu =   3.3264E+06 -3.5633E-02 -1.4435E-02 -1.9028E-02  7.833333333333333E-01  2.166666666666667E-01
 cg2d: Sum(rhs),rhsMax =   2.36732161651432E-12  9.54305710353397E+00
time,SST,SSS,fu,fv,Q,E-P,i0,i1,a,b =   3.3696E+06 -2.3380E-01  3.4480E+01 -1.8674E-02 -2.5560E-02  2.4554E+02  0.0000E+00     1     2  8.0000E-01  2.0000E-01
time,fu0,fu1,fu =   3.3696E+06 -3.5633E-02 -1.4435E-02 -1.8674E-02  8.000000000000000E-01  2.000000000000000E-01
 cg2d: Sum(rhs),rhsMax =   2.49069515012579E-12  9.54626017732883E+00
time,SST,SSS,fu,fv,Q,E-P,i0,i1,a,b =   3.4128E+06 -2.5864E-01  3.4475E+01 -1.8321E-02 -2.4899E-02  2.4512E+02  0.0000E+00     1     2  8.1667E-01  1.8333E-01
time,fu0,fu1,fu =   3.4128E+06 -3.5633E-02 -1.4435E-02 -1.8321E-02  8.166666666666667E-01  1.833333333333333E-01
 cg2d: Sum(rhs),rhsMax =   2.65545224698016E-12  9.44553408889320E+00
time,SST,SSS,fu,fv,Q,E-P,i0,i1,a,b =   3.4560E+06 -2.8348E-01  3.4470E+01 -1.7968E-02 -2.4239E-02  2.4470E+02  0.0000E+00     1     2  8.3333E-01  1.6667E-01
time,fu0,fu1,fu =   3.4560E+06 -3.5633E-02 -1.4435E-02 -1.7968E-02  8.333333333333334E-01  1.666666666666666E-01
 cg2d: Sum(rhs),rhsMax =   2.28436020099920E-12  9.24503795757150E+00
time,SST,SSS,fu,fv,Q,E-P,i0,i1,a,b =   3.4992E+06 -3.0831E-01  3.4465E+01 -1.7614E-02 -2.3579E-02  2.4427E+02  0.0000E+00     1     2  8.5000E-01  1.5000E-01
time,fu0,fu1,fu =   3.4992E+06 -3.5633E-02 -1.4435E-02 -1.7614E-02  8.500000000000000E-01  1.500000000000000E-01
 cg2d: Sum(rhs),rhsMax =   2.92941365609423E-12  8.95109002624175E+00
time,SST,SSS,fu,fv,Q,E-P,i0,i1,a,b =   3.5424E+06 -3.3315E-01  3.4460E+01 -1.7261E-02 -2.2918E-02  2.4385E+02  0.0000E+00     1     2  8.6667E-01  1.3333E-01
time,fu0,fu1,fu =   3.5424E+06 -3.5633E-02 -1.4435E-02 -1.7261E-02  8.666666666666667E-01  1.333333333333333E-01
 cg2d: Sum(rhs),rhsMax =   3.46644934978713E-12  8.57196017883418E+00
time,SST,SSS,fu,fv,Q,E-P,i0,i1,a,b =   3.5856E+06 -3.5799E-01  3.4455E+01 -1.6908E-02 -2.2258E-02  2.4343E+02  0.0000E+00     1     2  8.8333E-01  1.1667E-01
time,fu0,fu1,fu =   3.5856E+06 -3.5633E-02 -1.4435E-02 -1.6908E-02  8.833333333333333E-01  1.166666666666667E-01
 cg2d: Sum(rhs),rhsMax =   3.49022200030191E-12  8.11762787244103E+00
time,SST,SSS,fu,fv,Q,E-P,i0,i1,a,b =   3.6288E+06 -3.8283E-01  3.4450E+01 -1.6555E-02 -2.1598E-02  2.4301E+02  0.0000E+00     1     2  9.0000E-01  1.0000E-01
time,fu0,fu1,fu =   3.6288E+06 -3.5633E-02 -1.4435E-02 -1.6555E-02  9.000000000000000E-01  9.999999999999998E-02
 cg2d: Sum(rhs),rhsMax =   3.01808578129226E-12  8.02199628931659E+00
time,SST,SSS,fu,fv,Q,E-P,i0,i1,a,b =   3.6720E+06 -4.0767E-01  3.4446E+01 -1.6201E-02 -2.0937E-02  2.4259E+02  0.0000E+00     1     2  9.1667E-01  8.3333E-02
time,fu0,fu1,fu =   3.6720E+06 -3.5633E-02 -1.4435E-02 -1.6201E-02  9.166666666666666E-01  8.333333333333337E-02
 cg2d: Sum(rhs),rhsMax =   3.08873759902184E-12  7.98965233513267E+00
time,SST,SSS,fu,fv,Q,E-P,i0,i1,a,b =   3.7152E+06 -4.3250E-01  3.4441E+01 -1.5848E-02 -2.0277E-02  2.4217E+02  0.0000E+00     1     2  9.3333E-01  6.6667E-02
time,fu0,fu1,fu =   3.7152E+06 -3.5633E-02 -1.4435E-02 -1.5848E-02  9.333333333333333E-01  6.666666666666665E-02
 cg2d: Sum(rhs),rhsMax =   4.26678137266379E-12  7.95826433875444E+00
time,SST,SSS,fu,fv,Q,E-P,i0,i1,a,b =   3.7584E+06 -4.5734E-01  3.4436E+01 -1.5495E-02 -1.9617E-02  2.4175E+02  0.0000E+00     1     2  9.5000E-01  5.0000E-02
time,fu0,fu1,fu =   3.7584E+06 -3.5633E-02 -1.4435E-02 -1.5495E-02  9.500000000000000E-01  5.000000000000004E-02
 cg2d: Sum(rhs),rhsMax =   4.70211369840712E-12  7.92999021446621E+00
time,SST,SSS,fu,fv,Q,E-P,i0,i1,a,b =   3.8016E+06 -4.8218E-01  3.4431E+01 -1.5141E-02 -1.8956E-02  2.4132E+02  0.0000E+00     1     2  9.6667E-01  3.3333E-02
time,fu0,fu1,fu =   3.8016E+06 -3.5633E-02 -1.4435E-02 -1.5141E-02  9.666666666666667E-01  3.333333333333333E-02
 cg2d: Sum(rhs),rhsMax =   4.29385693667683E-12  7.90697482258311E+00
time,SST,SSS,fu,fv,Q,E-P,i0,i1,a,b =   3.8448E+06 -5.0702E-01  3.4426E+01 -1.4788E-02 -1.8296E-02  2.4090E+02  0.0000E+00     1     2  9.8333E-01  1.6667E-02
time,fu0,fu1,fu =   3.8448E+06 -3.5633E-02 -1.4435E-02 -1.4788E-02  9.833333333333333E-01  1.666666666666672E-02
 cg2d: Sum(rhs),rhsMax =   4.28604374214103E-12  7.89125107003982E+00
S/R EXTERNAL_FIELDS_LOAD: Reading new data:    2    3        90  3.888000000000E+06
(PID.TID 0000.0001)  MDSREADFIELD: opening global file: trenberth_taux.bin
(PID.TID 0000.0001)  MDSREADFIELD: opening global file: trenberth_taux.bin
(PID.TID 0000.0001)  MDSREADFIELD: opening global file: trenberth_tauy.bin
(PID.TID 0000.0001)  MDSREADFIELD: opening global file: trenberth_tauy.bin
(PID.TID 0000.0001)  MDSREADFIELD: opening global file: ncep_qnet.bin
(PID.TID 0000.0001)  MDSREADFIELD: opening global file: ncep_qnet.bin
(PID.TID 0000.0001)  MDSREADFIELD: opening global file: lev_sst.bin
(PID.TID 0000.0001)  MDSREADFIELD: opening global file: lev_sst.bin
(PID.TID 0000.0001)  MDSREADFIELD: opening global file: lev_sss.bin
(PID.TID 0000.0001)  MDSREADFIELD: opening global file: lev_sss.bin
time,SST,SSS,fu,fv,Q,E-P,i0,i1,a,b =   3.8880E+06 -5.3186E-01  3.4421E+01 -1.4435E-02 -1.7636E-02  2.4048E+02  0.0000E+00     2     3  0.0000E+00  1.0000E+00
time,fu0,fu1,fu =   3.8880E+06 -1.4435E-02 -2.7199E-02 -1.4435E-02  0.000000000000000E+00  1.000000000000000E+00
 cg2d: Sum(rhs),rhsMax =   4.13939715837586E-12  7.88464110316608E+00
time,SST,SSS,fu,fv,Q,E-P,i0,i1,a,b =   3.9312E+06 -5.2606E-01  3.4424E+01 -1.4647E-02 -1.7351E-02  2.4006E+02  0.0000E+00     2     3  1.6667E-02  9.8333E-01
time,fu0,fu1,fu =   3.9312E+06 -1.4435E-02 -2.7199E-02 -1.4647E-02  1.666666666666667E-02  9.833333333333333E-01
 cg2d: Sum(rhs),rhsMax =   4.61577998045470E-12  8.18557526327124E+00
time,SST,SSS,fu,fv,Q,E-P,i0,i1,a,b =   3.9744E+06 -5.2026E-01  3.4426E+01 -1.4860E-02 -1.7067E-02  2.3964E+02  0.0000E+00     2     3  3.3333E-02  9.6667E-01
time,fu0,fu1,fu =   3.9744E+06 -1.4435E-02 -2.7199E-02 -1.4860E-02  3.333333333333333E-02  9.666666666666667E-01
 cg2d: Sum(rhs),rhsMax =   4.06050193468843E-12  8.65937296710671E+00
time,SST,SSS,fu,fv,Q,E-P,i0,i1,a,b =   4.0176E+06 -5.1446E-01  3.4429E+01 -1.5073E-02 -1.6783E-02  2.3923E+02  0.0000E+00     2     3  5.0000E-02  9.5000E-01
time,fu0,fu1,fu =   4.0176E+06 -1.4435E-02 -2.7199E-02 -1.5073E-02  5.000000000000000E-02  9.500000000000000E-01
 cg2d: Sum(rhs),rhsMax =   3.65347335717914E-12  9.08149157860150E+00
time,SST,SSS,fu,fv,Q,E-P,i0,i1,a,b =   4.0608E+06 -5.0866E-01  3.4432E+01 -1.5286E-02 -1.6498E-02  2.3881E+02  0.0000E+00     2     3  6.6667E-02  9.3333E-01
time,fu0,fu1,fu =   4.0608E+06 -1.4435E-02 -2.7199E-02 -1.5286E-02  6.666666666666667E-02  9.333333333333333E-01
 cg2d: Sum(rhs),rhsMax =   3.62445490287300E-12  9.44424360417928E+00
time,SST,SSS,fu,fv,Q,E-P,i0,i1,a,b =   4.1040E+06 -5.0286E-01  3.4434E+01 -1.5498E-02 -1.6214E-02  2.3839E+02  0.0000E+00     2     3  8.3333E-02  9.1667E-01
time,fu0,fu1,fu =   4.1040E+06 -1.4435E-02 -2.7199E-02 -1.5498E-02  8.333333333333333E-02  9.166666666666666E-01
 cg2d: Sum(rhs),rhsMax =   3.06649844405982E-12  9.74175896285218E+00
time,SST,SSS,fu,fv,Q,E-P,i0,i1,a,b =   4.1472E+06 -4.9706E-01  3.4437E+01 -1.5711E-02 -1.5930E-02  2.3797E+02  0.0000E+00     2     3  1.0000E-01  9.0000E-01
time,fu0,fu1,fu =   4.1472E+06 -1.4435E-02 -2.7199E-02 -1.5711E-02  1.000000000000000E-01  9.000000000000000E-01
 cg2d: Sum(rhs),rhsMax =   3.20752452376283E-12  9.97004037002512E+00
time,SST,SSS,fu,fv,Q,E-P,i0,i1,a,b =   4.1904E+06 -4.9126E-01  3.4440E+01 -1.5924E-02 -1.5646E-02  2.3755E+02  0.0000E+00     2     3  1.1667E-01  8.8333E-01
time,fu0,fu1,fu =   4.1904E+06 -1.4435E-02 -2.7199E-02 -1.5924E-02  1.166666666666667E-01  8.833333333333333E-01
 cg2d: Sum(rhs),rhsMax =   2.66547894867131E-12  1.01269746540640E+01
time,SST,SSS,fu,fv,Q,E-P,i0,i1,a,b =   4.2336E+06 -4.8546E-01  3.4442E+01 -1.6137E-02 -1.5361E-02  2.3714E+02  0.0000E+00     2     3  1.3333E-01  8.6667E-01
time,fu0,fu1,fu =   4.2336E+06 -1.4435E-02 -2.7199E-02 -1.6137E-02  1.333333333333333E-01  8.666666666666667E-01
 cg2d: Sum(rhs),rhsMax =   2.90496793287076E-12  1.02123009091251E+01
time,SST,SSS,fu,fv,Q,E-P,i0,i1,a,b =   4.2768E+06 -4.7966E-01  3.4445E+01 -1.6349E-02 -1.5077E-02  2.3672E+02  0.0000E+00     2     3  1.5000E-01  8.5000E-01
time,fu0,fu1,fu =   4.2768E+06 -1.4435E-02 -2.7199E-02 -1.6349E-02  1.500000000000000E-01  8.500000000000000E-01
 cg2d: Sum(rhs),rhsMax =   2.28589369655197E-12  1.02275371039027E+01
time,SST,SSS,fu,fv,Q,E-P,i0,i1,a,b =   4.3200E+06 -4.7386E-01  3.4447E+01 -1.6562E-02 -1.4793E-02  2.3630E+02  0.0000E+00     2     3  1.6667E-01  8.3333E-01
time,fu0,fu1,fu =   4.3200E+06 -1.4435E-02 -2.7199E-02 -1.6562E-02  1.666666666666667E-01  8.333333333333334E-01
 cg2d: Sum(rhs),rhsMax =   2.34520042274866E-12  1.01758675323395E+01
time,SST,SSS,fu,fv,Q,E-P,i0,i1,a,b =   4.3632E+06 -4.6807E-01  3.4450E+01 -1.6775E-02 -1.4508E-02  2.3588E+02  0.0000E+00     2     3  1.8333E-01  8.1667E-01
time,fu0,fu1,fu =   4.3632E+06 -1.4435E-02 -2.7199E-02 -1.6775E-02  1.833333333333333E-01  8.166666666666667E-01
 cg2d: Sum(rhs),rhsMax =   2.74919670362195E-12  1.00619942750509E+01
time,SST,SSS,fu,fv,Q,E-P,i0,i1,a,b =   4.4064E+06 -4.6227E-01  3.4453E+01 -1.6988E-02 -1.4224E-02  2.3546E+02  0.0000E+00     2     3  2.0000E-01  8.0000E-01
time,fu0,fu1,fu =   4.4064E+06 -1.4435E-02 -2.7199E-02 -1.6988E-02  2.000000000000000E-01  8.000000000000000E-01
 cg2d: Sum(rhs),rhsMax =   2.32912994446721E-12  9.89195661632642E+00
time,SST,SSS,fu,fv,Q,E-P,i0,i1,a,b =   4.4496E+06 -4.5647E-01  3.4455E+01 -1.7200E-02 -1.3940E-02  2.3505E+02  0.0000E+00     2     3  2.1667E-01  7.8333E-01
time,fu0,fu1,fu =   4.4496E+06 -1.4435E-02 -2.7199E-02 -1.7200E-02  2.166666666666667E-01  7.833333333333333E-01
 cg2d: Sum(rhs),rhsMax =   2.39007424962523E-12  9.67292310854132E+00
time,SST,SSS,fu,fv,Q,E-P,i0,i1,a,b =   4.4928E+06 -4.5067E-01  3.4458E+01 -1.7413E-02 -1.3655E-02  2.3463E+02  0.0000E+00     2     3  2.3333E-01  7.6667E-01
time,fu0,fu1,fu =   4.4928E+06 -1.4435E-02 -2.7199E-02 -1.7413E-02  2.333333333333333E-01  7.666666666666666E-01
 cg2d: Sum(rhs),rhsMax =   2.39485514752502E-12  9.41296166664622E+00
time,SST,SSS,fu,fv,Q,E-P,i0,i1,a,b =   4.5360E+06 -4.4487E-01  3.4461E+01 -1.7626E-02 -1.3371E-02  2.3421E+02  0.0000E+00     2     3  2.5000E-01  7.5000E-01
time,fu0,fu1,fu =   4.5360E+06 -1.4435E-02 -2.7199E-02 -1.7626E-02  2.500000000000000E-01  7.500000000000000E-01
 cg2d: Sum(rhs),rhsMax =   2.97679242367010E-12  9.12079367632691E+00
time,SST,SSS,fu,fv,Q,E-P,i0,i1,a,b =   4.5792E+06 -4.3907E-01  3.4463E+01 -1.7838E-02 -1.3087E-02  2.3379E+02  0.0000E+00     2     3  2.6667E-01  7.3333E-01
time,fu0,fu1,fu =   4.5792E+06 -1.4435E-02 -2.7199E-02 -1.7838E-02  2.666666666666667E-01  7.333333333333334E-01
 cg2d: Sum(rhs),rhsMax =   1.88207088802628E-12  8.86256549507579E+00
time,SST,SSS,fu,fv,Q,E-P,i0,i1,a,b =   4.6224E+06 -4.3327E-01  3.4466E+01 -1.8051E-02 -1.2803E-02  2.3337E+02  0.0000E+00     2     3  2.8333E-01  7.1667E-01
time,fu0,fu1,fu =   4.6224E+06 -1.4435E-02 -2.7199E-02 -1.8051E-02  2.833333333333333E-01  7.166666666666667E-01
 cg2d: Sum(rhs),rhsMax =   2.10554490509551E-12  8.89641380478221E+00
time,SST,SSS,fu,fv,Q,E-P,i0,i1,a,b =   4.6656E+06 -4.2747E-01  3.4469E+01 -1.8264E-02 -1.2518E-02  2.3296E+02  0.0000E+00     2     3  3.0000E-01  7.0000E-01
time,fu0,fu1,fu =   4.6656E+06 -1.4435E-02 -2.7199E-02 -1.8264E-02  3.000000000000000E-01  7.000000000000000E-01
 cg2d: Sum(rhs),rhsMax =   2.86456969256221E-12  8.91497214553754E+00
time,SST,SSS,fu,fv,Q,E-P,i0,i1,a,b =   4.7088E+06 -4.2167E-01  3.4471E+01 -1.8477E-02 -1.2234E-02  2.3254E+02  0.0000E+00     2     3  3.1667E-01  6.8333E-01
time,fu0,fu1,fu =   4.7088E+06 -1.4435E-02 -2.7199E-02 -1.8477E-02  3.166666666666667E-01  6.833333333333333E-01
 cg2d: Sum(rhs),rhsMax =   2.73716466159257E-12  8.91793956887940E+00
time,SST,SSS,fu,fv,Q,E-P,i0,i1,a,b =   4.7520E+06 -4.1587E-01  3.4474E+01 -1.8689E-02 -1.1950E-02  2.3212E+02  0.0000E+00     2     3  3.3333E-01  6.6667E-01
time,fu0,fu1,fu =   4.7520E+06 -1.4435E-02 -2.7199E-02 -1.8689E-02  3.333333333333333E-01  6.666666666666667E-01
 cg2d: Sum(rhs),rhsMax =   2.51008935858721E-12  8.90561080252272E+00
time,SST,SSS,fu,fv,Q,E-P,i0,i1,a,b =   4.7952E+06 -4.1007E-01  3.4476E+01 -1.8902E-02 -1.1665E-02  2.3170E+02  0.0000E+00     2     3  3.5000E-01  6.5000E-01
time,fu0,fu1,fu =   4.7952E+06 -1.4435E-02 -2.7199E-02 -1.8902E-02  3.500000000000000E-01  6.500000000000000E-01
 cg2d: Sum(rhs),rhsMax =   2.73737976730359E-12  8.87885333266216E+00
time,SST,SSS,fu,fv,Q,E-P,i0,i1,a,b =   4.8384E+06 -4.0427E-01  3.4479E+01 -1.9115E-02 -1.1381E-02  2.3128E+02  0.0000E+00     2     3  3.6667E-01  6.3333E-01
time,fu0,fu1,fu =   4.8384E+06 -1.4435E-02 -2.7199E-02 -1.9115E-02  3.666666666666666E-01  6.333333333333333E-01
 cg2d: Sum(rhs),rhsMax =   3.23206045260704E-12  8.83905893545819E+00
time,SST,SSS,fu,fv,Q,E-P,i0,i1,a,b =   4.8816E+06 -3.9848E-01  3.4482E+01 -1.9328E-02 -1.1097E-02  2.3087E+02  0.0000E+00     2     3  3.8333E-01  6.1667E-01
time,fu0,fu1,fu =   4.8816E+06 -1.4435E-02 -2.7199E-02 -1.9328E-02  3.833333333333334E-01  6.166666666666667E-01
 cg2d: Sum(rhs),rhsMax =   2.55098026036293E-12  8.78807243326821E+00
time,SST,SSS,fu,fv,Q,E-P,i0,i1,a,b =   4.9248E+06 -3.9268E-01  3.4484E+01 -1.9540E-02 -1.0813E-02  2.3045E+02  0.0000E+00     2     3  4.0000E-01  6.0000E-01
time,fu0,fu1,fu =   4.9248E+06 -1.4435E-02 -2.7199E-02 -1.9540E-02  4.000000000000000E-01  6.000000000000000E-01
 cg2d: Sum(rhs),rhsMax =   1.87269644236210E-12  8.72810161224464E+00
time,SST,SSS,fu,fv,Q,E-P,i0,i1,a,b =   4.9680E+06 -3.8688E-01  3.4487E+01 -1.9753E-02 -1.0528E-02  2.3003E+02  0.0000E+00     2     3  4.1667E-01  5.8333E-01
time,fu0,fu1,fu =   4.9680E+06 -1.4435E-02 -2.7199E-02 -1.9753E-02  4.166666666666667E-01  5.833333333333333E-01
 cg2d: Sum(rhs),rhsMax =   2.69138183961459E-12  8.66161329307783E+00
time,SST,SSS,fu,fv,Q,E-P,i0,i1,a,b =   5.0112E+06 -3.8108E-01  3.4490E+01 -1.9966E-02 -1.0244E-02  2.2961E+02  0.0000E+00     2     3  4.3333E-01  5.6667E-01
time,fu0,fu1,fu =   5.0112E+06 -1.4435E-02 -2.7199E-02 -1.9966E-02  4.333333333333333E-01  5.666666666666667E-01
 cg2d: Sum(rhs),rhsMax =   1.62536650805123E-12  8.59122120043563E+00
time,SST,SSS,fu,fv,Q,E-P,i0,i1,a,b =   5.0544E+06 -3.7528E-01  3.4492E+01 -2.0179E-02 -9.9597E-03  2.2919E+02  0.0000E+00     2     3  4.5000E-01  5.5000E-01
time,fu0,fu1,fu =   5.0544E+06 -1.4435E-02 -2.7199E-02 -2.0179E-02  4.500000000000000E-01  5.500000000000000E-01
 cg2d: Sum(rhs),rhsMax =   2.43483011530543E-12  8.77527694545009E+00
time,SST,SSS,fu,fv,Q,E-P,i0,i1,a,b =   5.0976E+06 -3.6948E-01  3.4495E+01 -2.0391E-02 -9.6754E-03  2.2877E+02  0.0000E+00     2     3  4.6667E-01  5.3333E-01
time,fu0,fu1,fu =   5.0976E+06 -1.4435E-02 -2.7199E-02 -2.0391E-02  4.666666666666667E-01  5.333333333333333E-01
 cg2d: Sum(rhs),rhsMax =   1.86670123802912E-12  9.00166248672302E+00
time,SST,SSS,fu,fv,Q,E-P,i0,i1,a,b =   5.1408E+06 -3.6368E-01  3.4497E+01 -2.0604E-02 -9.3911E-03  2.2836E+02  0.0000E+00     2     3  4.8333E-01  5.1667E-01
time,fu0,fu1,fu =   5.1408E+06 -1.4435E-02 -2.7199E-02 -2.0604E-02  4.833333333333333E-01  5.166666666666666E-01
 cg2d: Sum(rhs),rhsMax =   1.96644089900389E-12  9.15305724696936E+00
 --> objf_test(bi,bj)   =  0.000000000000000E+00
 --> objf_tracer(bi,bj) =  0.000000000000000E+00
 --> objf_atl(bi,bj)    = -0.114865701967732E+00
  local fc = -0.114865701967732E+00
 global fc = -0.114865701967732E+00
(PID.TID 0000.0001)  MDSREADFIELD: opening file: xx_theta.0000000000.001.001.data
 grad-res -------------------------------
 grad-res     0    1   43    2    1   -.114865705E+00 -.114865709E+00 -.114865702E+00
 grad-res     0    1    1    1 2315   -.326970089E-06 -.326971034E-06 -.289212748E-05
(PID.TID 0000.0001)       precision_grdchk_result ADM    -1.14865705235558E-01    -3.26970088636524E-07
 ph-grd  ierr ---------------------------
 ph-grd  ierr =  0, icomp =  1, ichknum =  1
(PID.TID 0000.0001)  MDSREADFIELD: opening file: adxx_theta.0000000000.001.001.data
(PID.TID 0000.0001)  MDSREADFIELD: opening file: xx_theta.0000000000.001.001.data
(PID.TID 0000.0001)  MDSREADFIELD: opening global file: bathymetry.bin
(PID.TID 0000.0001) // =======================================================
(PID.TID 0000.0001) // Field Model R_low (ini_masks_etc) at iteration          1
(PID.TID 0000.0001) // CMIN =         -5.200000000000000E+03
(PID.TID 0000.0001) // CMAX =         -1.200000000000000E+02
(PID.TID 0000.0001) // CINT =          1.881481481481482E+02
(PID.TID 0000.0001) // SYMBOLS (CMIN->CMAX): -abcdefghijklmnopqrstuvwxyz+
(PID.TID 0000.0001) //                  0.0: .
(PID.TID 0000.0001) // RANGE I (Lo:Hi:Step):(  -2:  93:   1)
(PID.TID 0000.0001) // RANGE J (Lo:Hi:Step):(  43:  -2:  -1)
(PID.TID 0000.0001) // RANGE K (Lo:Hi:Step):(   1:   1:   1)
(PID.TID 0000.0001) // =======================================================
(PID.TID 0000.0001) K =   1
(PID.TID 0000.0001) //                I=7       I=17      I=27      I=37      I=47      I=57      I=67      I=77      I=87
(PID.TID 0000.0001) // |--J--|210123456|890123456|890123456|890123456|890123456|890123456|890123456|890123456|890123456|890123
(PID.TID 0000.0001) //     43 ................................................................................................
(PID.TID 0000.0001) //     42 .............................................zyxxmgfeeefefgimnpwwwy..+zyy.....yyyyoiiihhz+......
(PID.TID 0000.0001) //     41 ................................................................................................
(PID.TID 0000.0001) //     40 +qlloqz+.++++zzz++++++..................................................................+++qlloq
(PID.TID 0000.0001) //     39 uslloorzzzzzzzzz+...++.....................................................yxxz........+zvuslloo
(PID.TID 0000.0001) //     38 smqpporzzzzzz+++...........................................................zxxy+......zyyvsmqppo
(PID.TID 0000.0001) //     37 smmmuz..................................................................++...zy+...yttyy.+smmmuz
(PID.TID 0000.0001) //     36 yutt+.........................................mm++....................+++++++znmm.yoowssvuyutt+.
(PID.TID 0000.0001) //     35 w++++.................................+zzz..rrmmkk+...+gghn...........+++....+nmiijlsoopuww++++.
(PID.TID 0000.0001) //     34 +.....................................+vvy.ggqyxv+y.ccdffhim..................+nihhikkihhm+.....
(PID.TID 0000.0001) //     33 w+.....................................uuz---h------aaabdefin+.................zqvddflifffw+....
(PID.TID 0000.0001) //     32 m+.....................................+t----h---------acdfgnn................+++gdffkofffm+....
(PID.TID 0000.0001) //     31 m......................................-----ad--------abddegil..............qbaafccdhqqgddm.....
(PID.TID 0000.0001) //     30 i.....................................f----b--b------------abd............zfbb--fbcdosjfddi.....
(PID.TID 0000.0001) //     29 i...................................tu----e---fjg----------abdf...........eaac--abfmijaadgi.....
(PID.TID 0000.0001) //     28 z.................................+xfl-------------------bdedefi.........qbaa---aemfbbaaejz.....
(PID.TID 0000.0001) //     27 .................xx..............+wfgfpf--------eallc---bbbccefgi...+++x.qb-----akfa---ah.......
(PID.TID 0000.0001) //     26 .................xnn...........+vd---dna------a--aicfna---aabdfghku.++xssuy-----bgca---ci.......
(PID.TID 0000.0001) //     25 .................iiik...oo+...+ivd---doaa-bc--ilglf--aa---aabcghhkll...ssum+xaaacjbaabdjk.......
(PID.TID 0000.0001) //     24 ...............xnheeft.kkk+...uii.aagdm----aa-----a-------bbbcdefjljjju.zummwwbbchba--abi.......
(PID.TID 0000.0001) //     23 ...............xgheefp.iikw...uuw..fihi----fed-----eaaa--bbbbcdfflkjiiiq....zykccefa--abd.......
(PID.TID 0000.0001) //     22 quss...........bbelffslffkk...zz.wqkeeqoheccdfa-----egabaabcdddegghliiiqq......xeeehheehccquss..
(PID.TID 0000.0001) //     21 cbbeir........nbbcdjhqdddiiz.....wqfeelgghmedea-----bibbcddddddefghklnqoo........ieeflhgcccbbeir
(PID.TID 0000.0001) //     20 cbbder.......ldcccdgkccccidd......z.vkkktqqhegg----aaacddddddddefghkiiijl.........nhfa--gfcbbder
(PID.TID 0000.0001) //     19 hcdaaf.......kddosggpaaaibbccx...+z+.....r+nlec---agaaabcddccddefikfgffff...........d---cjhcdaaf
(PID.TID 0000.0001) //     18 hd---d.......kglggvliaaaibbcaaeaiv++...qqzolhecccfdgkaabcdfccdeeikgfgffdd+..........d---djhd---d
(PID.TID 0000.0001) //     17 hc---c.......l.feewlfaaaoaa----aiv.....qqnllslmlofcdbaacceffffhhligfigeddj.........hd---ckhc---c
(PID.TID 0000.0001) //     16 gba--c......tn.ddgnlfdaaqa-----lv.......vnllvllnwv--accivomfffhilhgfffeddjf........re--aeigba--c
(PID.TID 0000.0001) //     15 fb--dpz....+ll.ccdfhmdddlc----av.........otsxoomv---abccddfihgijkhgfffeejfff......+fd---ckfb--dp
(PID.TID 0000.0001) //     14 fc--mcl....weeqbaafilkfend--eagy.........hhstofft----aacdheefijkmjhhjijiffff.....zlfdaaadlfc--mc
(PID.TID 0000.0001) //     13 hcclbbg....nccobaaiddgkffqrqeaal.........eeutqfft------aaceeffhijlkjhhigfffq....+jgfodccflhcclbb
(PID.TID 0000.0001) //     12 hhgaaacw+iiicclemhdddfliigfdcaabfaaaz....ccsurqpc--------abcifffikiiihhggff.....kbbbdfffglhhgaaa
(PID.TID 0000.0001) //     11 kgcaaacbbifccennhbbdefnihgfdccaaaa----..dcccnt.ncab-------aabcdfilhggjiggff....l---abcefjlkgcaaa
(PID.TID 0000.0001) //     10 kfcaaccbdaacfrllfbbdegkmmljhfdddba----d.dcccfx.nyrebaba----abcdgilhfeegijgi..+w--aa-abcfilkfcaac
(PID.TID 0000.0001) //      9 lffcdcccaaaoqsolfdeehikihhlllgfedcccccdmdcccf.vyfaaaaaaaa--abdehmjhfeeefglv.++w-----abcdfklffcdc
(PID.TID 0000.0001) //      8 liffjklcaafddffeeccvznkfffhhhlkjifgjkkfeeddfsyvcaaaaaaccdcccdfgjligedbbceg+.++xffn--cfddefliffjk
(PID.TID 0000.0001) //      7 hmqnnbbkkf--bmbaabbgtykfddeffeeddccdfhlffeelfbaaaaaacddeghgjgjlligeddaaabedfiiiiiisvkfkecchmqnnb
(PID.TID 0000.0001) //      6 cca-------------aabcelttdddedddddccccdfkkiiffbaaaabcdgimmkmefecaaabbbaaabbdfiiiiispmmregifcca---
(PID.TID 0000.0001) //      5 --------a-------aaccehhhiddeddddddcccdfiikomodddefffmlmigedccaaaaaaaababbbdfiijsqgeccccbaa------
(PID.TID 0000.0001) //      4 --ahebaabbbbbeihffgijiiiijpywnnpokkomkiiijmmmolkommmgffeeedccaaaaaabbcccefhmz..yjgeccccbaa--aheb
(PID.TID 0000.0001) //      3 gffhhrpjiiwyy............................yxotmjjjjgfeeeeeeddeffffheddeghjkyy..yqjgeddccdbbgffhhr
(PID.TID 0000.0001) //      2 .............................................zyxxmgfeeefefgimnpwwwy..+zyy.....yyyyoiiihhz+......
(PID.TID 0000.0001) //      1 ................................................................................................
(PID.TID 0000.0001) //      0 +qlloqz+.++++zzz++++++..................................................................+++qlloq
(PID.TID 0000.0001) //     -1 uslloorzzzzzzzzz+...++.....................................................yxxz........+zvuslloo
(PID.TID 0000.0001) //     -2 ................................................................................................
(PID.TID 0000.0001) // =======================================================
(PID.TID 0000.0001) // END OF FIELD                                          =
(PID.TID 0000.0001) // =======================================================
(PID.TID 0000.0001) 
(PID.TID 0000.0001) // =======================================================
(PID.TID 0000.0001) // Field Model Ro_surf (ini_masks_etc) at iteration          1
(PID.TID 0000.0001) // CMIN =          1.000000000000000E+32
(PID.TID 0000.0001) // CMAX =         -1.000000000000000E+32
(PID.TID 0000.0001) // CINT =          0.000000000000000E+00
(PID.TID 0000.0001) // SYMBOLS (CMIN->CMAX): -abcdefghijklmnopqrstuvwxyz+
(PID.TID 0000.0001) //                  0.0: .
(PID.TID 0000.0001) // RANGE I (Lo:Hi:Step):(  -2:  93:   1)
(PID.TID 0000.0001) // RANGE J (Lo:Hi:Step):(  43:  -2:  -1)
(PID.TID 0000.0001) // RANGE K (Lo:Hi:Step):(   1:   1:   1)
(PID.TID 0000.0001) // =======================================================
(PID.TID 0000.0001) // =======================================================
(PID.TID 0000.0001) // END OF FIELD                                          =
(PID.TID 0000.0001) // =======================================================
(PID.TID 0000.0001) 
(PID.TID 0000.0001) // =======================================================
(PID.TID 0000.0001) // Field hFacC at iteration          1
(PID.TID 0000.0001) // CMIN =          1.000000000000000E+00
(PID.TID 0000.0001) // CMAX =          1.000000000000000E+00
(PID.TID 0000.0001) // CINT =          0.000000000000000E+00
(PID.TID 0000.0001) // SYMBOLS (CMIN->CMAX): -abcdefghijklmnopqrstuvwxyz+
(PID.TID 0000.0001) //                  0.0: .
(PID.TID 0000.0001) // RANGE I (Lo:Hi:Step):(  -2:  93:   1)
(PID.TID 0000.0001) // RANGE J (Lo:Hi:Step):(  43:  -2:  -1)
(PID.TID 0000.0001) // RANGE K (Lo:Hi:Step):(   1:   1:   1)
(PID.TID 0000.0001) // =======================================================
(PID.TID 0000.0001) // =======================================================
(PID.TID 0000.0001) // END OF FIELD                                          =
(PID.TID 0000.0001) // =======================================================
(PID.TID 0000.0001) 
(PID.TID 0000.0001) // =======================================================
(PID.TID 0000.0001) // Field hFacW at iteration          1
(PID.TID 0000.0001) // CMIN =          1.000000000000000E+00
(PID.TID 0000.0001) // CMAX =          1.000000000000000E+00
(PID.TID 0000.0001) // CINT =          0.000000000000000E+00
(PID.TID 0000.0001) // SYMBOLS (CMIN->CMAX): -abcdefghijklmnopqrstuvwxyz+
(PID.TID 0000.0001) //                  0.0: .
(PID.TID 0000.0001) // RANGE I (Lo:Hi:Step):(  -2:  93:   1)
(PID.TID 0000.0001) // RANGE J (Lo:Hi:Step):(  43:  -2:  -1)
(PID.TID 0000.0001) // RANGE K (Lo:Hi:Step):(   1:   1:   1)
(PID.TID 0000.0001) // =======================================================
(PID.TID 0000.0001) // =======================================================
(PID.TID 0000.0001) // END OF FIELD                                          =
(PID.TID 0000.0001) // =======================================================
(PID.TID 0000.0001) 
(PID.TID 0000.0001) // =======================================================
(PID.TID 0000.0001) // Field hFacS at iteration          1
(PID.TID 0000.0001) // CMIN =          1.000000000000000E+00
(PID.TID 0000.0001) // CMAX =          1.000000000000000E+00
(PID.TID 0000.0001) // CINT =          0.000000000000000E+00
(PID.TID 0000.0001) // SYMBOLS (CMIN->CMAX): -abcdefghijklmnopqrstuvwxyz+
(PID.TID 0000.0001) //                  0.0: .
(PID.TID 0000.0001) // RANGE I (Lo:Hi:Step):(  -2:  93:   1)
(PID.TID 0000.0001) // RANGE J (Lo:Hi:Step):(  43:  -2:  -1)
(PID.TID 0000.0001) // RANGE K (Lo:Hi:Step):(   1:   1:   1)
(PID.TID 0000.0001) // =======================================================
(PID.TID 0000.0001) // =======================================================
(PID.TID 0000.0001) // END OF FIELD                                          =
(PID.TID 0000.0001) // =======================================================
(PID.TID 0000.0001) 
(PID.TID 0000.0001) %MON ad_advcflfCori_max           =   1.4226580169407E-04
(PID.TID 0000.0001) %MON ad_advcflfCori_min           =  -1.4226580169407E-04
(PID.TID 0000.0001) %MON ad_advcflfCori_mean          =   7.5291817533716E-23
(PID.TID 0000.0001) %MON ad_advcflfCori_sd            =   9.6335367303778E-05
(PID.TID 0000.0001) %MON ad_advcflfCoriG_max          =   1.4112379284621E-04
(PID.TID 0000.0001) %MON ad_advcflfCoriG_min          =  -1.4323448157692E-04
(PID.TID 0000.0001) %MON ad_advcflfCoriG_mean         =  -3.6726790147928E-06
(PID.TID 0000.0001) %MON ad_advcflfCoriG_sd           =   9.7510077443652E-05
(PID.TID 0000.0001) %MON ad_advcflfCoriCos_max        =   1.4535550371427E-04
(PID.TID 0000.0001) %MON ad_advcflfCoriCos_min        =   3.0239529651320E-05
(PID.TID 0000.0001) %MON ad_advcflfCoriCos_mean       =   1.0260497651149E-04
(PID.TID 0000.0001) %MON ad_advcflfCoriCos_sd         =   3.6683828681187E-05
(PID.TID 0000.0001) INI_CG2D: CG2D normalisation factor =  6.5682677425711703E-05
(PID.TID 0000.0001) 
(PID.TID 0000.0001)  MDSREADFIELD: opening global file: lev_t.bin
(PID.TID 0000.0001) // =======================================================
(PID.TID 0000.0001) // Field Initial Temperature at iteration          1
(PID.TID 0000.0001) // CMIN =         -1.900000000000000E+00
(PID.TID 0000.0001) // CMAX =          2.973338890075684E+01
(PID.TID 0000.0001) // CINT =          1.171606996324327E+00
(PID.TID 0000.0001) // SYMBOLS (CMIN->CMAX): -abcdefghijklmnopqrstuvwxyz+
(PID.TID 0000.0001) //                  0.0: .
(PID.TID 0000.0001) // RANGE I (Lo:Hi:Step):(   1:  90:   1)
(PID.TID 0000.0001) // RANGE J (Lo:Hi:Step):(  40:   1:  -1)
(PID.TID 0000.0001) // RANGE K (Lo:Hi:Step):(   1:   1:   1)
(PID.TID 0000.0001) // =======================================================
(PID.TID 0000.0001) K =   1
(PID.TID 0000.0001)                I=10      I=20      I=30      I=40      I=50      I=60      I=70      I=80      I=90
(PID.TID 0000.0001) |--J--|123456789|123456789|123456789|123456789|123456789|123456789|123456789|123456789|123456789|
(PID.TID 0000.0001)     40 bccdd.baa----abdedd..................................................................bbbbb
(PID.TID 0000.0001)     39 ccdddddccbbbaa...ed.....................................................----........bbbbbb
(PID.TID 0000.0001)     38 fffgfedeedddc...........................................................-----......cbbbcde
(PID.TID 0000.0001)     37 ghh..................................................................bc...bbc...edeed.defg
(PID.TID 0000.0001)     36 hh.........................................ddcb....................dcccbabccdd.eefghhihhih
(PID.TID 0000.0001)     35 hh.................................aaab..dddeddd...ffggg...........ccc....ddeeeffghijjjjih
(PID.TID 0000.0001)     34 ...................................babb.deeeeeee.ffffgghh..................ccdffghijkkkj..
(PID.TID 0000.0001)     33 ....................................accdddeeeeefffffgghhiii.................bcfijkkllllkk.
(PID.TID 0000.0001)     32 ....................................bdddeffgffgghhhhhiiijjj................dccglmnmmmmlll.
(PID.TID 0000.0001)     31 ....................................fghiiiijjjjjjkkkkklllkk..............ikkjjmooooonnmm..
(PID.TID 0000.0001)     30 ...................................mmmnmmmmmmmmmmmmmnnnnnmm............moqrrrqrqqqpppooo..
(PID.TID 0000.0001)     29 .................................pqqqqqpppppppppoppoppppponm...........ssssssrrrrrqqqqpp..
(PID.TID 0000.0001)     28 ...............................prssssrrrsssrrrrrrrrrrrrrqqpoo.........uttssstssrssrrrqqq..
(PID.TID 0000.0001)     27 ..............vv..............stuttuuuuutuuuuuuuuuuttttssrrqqq...stuu.vvvuuuuutttttsss....
(PID.TID 0000.0001)     26 ..............vvv...........uuvvvvvwwwwwwwwvvvvvvvvvuuutttsssttv.uuvxxwwwwwwvvvvuuttsr....
(PID.TID 0000.0001)     25 ..............wwwx...xxx...vvvxxxxxyyxxxxxxxxxwwwwwvvvvvuuuuuvwwx...xxxxxxwwwwwwvvutsr....
(PID.TID 0000.0001)     24 ............wwwwxyy.xxyy...wxx.yyyyyyyyyyyxxxxxxxxwwwwwwwvvwwxxyywww.xxxxxxxxxxwwwvvur....
(PID.TID 0000.0001)     23 ............xxxyyyz.xyyy...xxx..yyyyzzyyyyyyyyxxxxxxxxxwwwwwxxxwwwwwx....vwxxxxwwwwwvu....
(PID.TID 0000.0001)     22 w...........xxyyyzyyyyyz...xx.yyzzzzzzzzzzzzzyyzyyyyyyxxwwxxxxwvvvwwxw......yyyyxxxxxxwxxw
(PID.TID 0000.0001)     21 xxx........xxxxyyzzzzzzz+.....zyzzzzzzz++zzzzyyyyyyyyxxwvvwwwwvvvvvvvu........yyyyyyyyyxxx
(PID.TID 0000.0001)     20 xww.......xyyyyxyyzzzzzz+......z.zzzzz+++zzzzzzyyyyyxxxxwvwxwvuuuuuuut.........yyyyxxxxwww
(PID.TID 0000.0001)     19 vvv.......yyyyxwwxyzyyzzzzz...zzz.....++++++z++z+zzzyyyyxxxxwwvvvvvvvu...........yyxxxwwww
(PID.TID 0000.0001)     18 uut.......zzyyywwxyzyyyyzzyzzzzzz...z+z++++zz+++++++zzzyyyyxxwwwvvvvvtt..........yyxxwvvwv
(PID.TID 0000.0001)     17 uus.......z.yyyyyyxyzzyyyyyyyzz.....yzzzzzzzzzzzzzzzzzzyyyyxxwwvuuvvuut.........yyyxxwttvu
(PID.TID 0000.0001)     16 utr......yy.zyyyyxxxxxxxwxxxxy.......yyyyyyyyyyyyyyyyyyyyyyyxxwvvvuuutts........xyyyxwvuuu
(PID.TID 0000.0001)     15 ttrr....xxx.xxxwxwwwwvwwvvvww.........xwxxxxxxxxxxxxxxxxxyyyxwwwvvuttssrr......wxxxxxwwvuu
(PID.TID 0000.0001)     14 ttsq....xyxwwxwvwwwvutuuuuuuu.........wwvwwwwvwvvwwwvwvvwwwwwwvvvuuutssrr.....vwwwwwwwvvvu
(PID.TID 0000.0001)     13 tttr....wwwvvvtttuuuutttssttt.........vvvuuuuuuutttttuuuuuvwwwuuuttttssrr....uvvvvvvvvvvut
(PID.TID 0000.0001)     12 sssssstttutssssrrrrrstrqqrrssqqrrq....uuttssssrrrrrrrrrrrstttssssrssrrqp.....uuuttssttssss
(PID.TID 0000.0001)     11 poprsssrqqqqqrqppooopqpoppppppppppp..sssrrr.rqpppqqqqppppqqqoppqqqqrqqpp....prsrqqqqqppppq
(PID.TID 0000.0001)     10 lllmoooonmnnmnnnnmmmmmmlmmlllmnnnnon.qqqppp.ppppppooooooooonmnnnonnooooo..nmoponnmnnnnnmll
(PID.TID 0000.0001)      9 ihhiiiihhhhhhiiihiiiiihhhiiiijjkkmnllnnnnn.mmmmnnnnmmmmnnmmlklllllklllll.mllmmllkjiijjihhi
(PID.TID 0000.0001)      8 eeeeeeeedefgggffeeffggffffggghiiiijjijklklkkkkkkkklllkkkkjjiiijkjjjjjjkj.kkjjiihggffffedde
(PID.TID 0000.0001)      7 cccccddeedddefeddddddddddefeefffffgggghiiiiiijjjihhgggghhhhhghhhhhhhiiiihiihhgfeddddddcccc
(PID.TID 0000.0001)      6 abbcccddcccccdddddccdddddddccddddddeeeeffggggghhgeddddddeeeeeeefggggghggggffeedccbbbbbbbba
(PID.TID 0000.0001)      5 bbbcccccccccccccccccccccbbccccdddddddcccddeeddeedcbbbbbbccccccdddeeeeeddddddccbbbbaaaaaaab
(PID.TID 0000.0001)      4 bbbbbbbaaabbbbbbbbbbbbaabbabbbbcbbbbbbbbbbbbbbbbbbbabbaaabbbbbbbbbbbbbbbbb..a--aaabbbaaabb
(PID.TID 0000.0001)      3 bbbbaaa-a-............................bbaaaaaaaaaaaaaaaaaaaaaaaaaaaaaaaab..aaaaaaaabbbaaaa
(PID.TID 0000.0001)      2 ..........................................baaaaaaaaaaaa-------aa..aaaa.....aaaaaaaaaaaa...
(PID.TID 0000.0001)      1 ..........................................................................................
(PID.TID 0000.0001) // =======================================================
(PID.TID 0000.0001) // END OF FIELD                                          =
(PID.TID 0000.0001) // =======================================================
(PID.TID 0000.0001) 
(PID.TID 0000.0001)  MDSREADFIELD: opening global file: lev_s.bin
(PID.TID 0000.0001) // =======================================================
(PID.TID 0000.0001) // Field Initial Salinity at iteration          1
(PID.TID 0000.0001) // CMIN =          2.975276947021484E+01
(PID.TID 0000.0001) // CMAX =          3.747562789916992E+01
(PID.TID 0000.0001) // CINT =          2.860317936650029E-01
(PID.TID 0000.0001) // SYMBOLS (CMIN->CMAX): -abcdefghijklmnopqrstuvwxyz+
(PID.TID 0000.0001) //                  0.0: .
(PID.TID 0000.0001) // RANGE I (Lo:Hi:Step):(   1:  90:   1)
(PID.TID 0000.0001) // RANGE J (Lo:Hi:Step):(  40:   1:  -1)
(PID.TID 0000.0001) // RANGE K (Lo:Hi:Step):(   1:   1:   1)
(PID.TID 0000.0001) // =======================================================
(PID.TID 0000.0001) K =   1
(PID.TID 0000.0001)                I=10      I=20      I=30      I=40      I=50      I=60      I=70      I=80      I=90
(PID.TID 0000.0001) |--J--|123456789|123456789|123456789|123456789|123456789|123456789|123456789|123456789|123456789|
(PID.TID 0000.0001)     40 qrrrr.oonnooopqtutt..................................................................mnnop
(PID.TID 0000.0001)     39 rssrrrrrrrqqpn...ut.....................................................mmmm........opqqqr
(PID.TID 0000.0001)     38 ssrrqqqqrrqpo...........................................................lkkll......onoqrrs
(PID.TID 0000.0001)     37 ssr..................................................................hg...lln...qppqr.rrrs
(PID.TID 0000.0001)     36 rr.........................................lkji....................feeegikmoop.pqrssssssss
(PID.TID 0000.0001)     35 rr.................................kkkk..lllllki...jijjj...........aa-....opqrrrrrrrssttss
(PID.TID 0000.0001)     34 ...................................jlll.kklllllk.ijkkkjih..................hlpqrqrrsstts..
(PID.TID 0000.0001)     33 ....................................iklkkkkkkkkkjkkjjjjjjii.................jmprrsstttttt.
(PID.TID 0000.0001)     32 ....................................iklllkllllllllkkkkkkkji................gilpstuuttuuut.
(PID.TID 0000.0001)     31 ....................................lmnonnnnoooonnmmmmllkjj..............loopqtvvvuuuuuu..
(PID.TID 0000.0001)     30 ...................................pppppppqqqqpppoooonnmlkk............ptvxwwvvwvvvvvvvu..
(PID.TID 0000.0001)     29 .................................pqqrqqqqqqrrrqqppqqqpponmll...........vxxxxxxwwwwwxwwxw..
(PID.TID 0000.0001)     28 ...............................prrrrrqqrrrrrsrrsrssssssrqonmm.........wxxxxxxxyyyyyyyyxx..
(PID.TID 0000.0001)     27 ..............xx..............prrrrrrrrrssssssstttssssssrqpoop...uwww.wwxxxyyy++zzzzyy....
(PID.TID 0000.0001)     26 ..............wxx...........ppqrrrrrrsssrrstsstttssrrrrrrrqppqqp.wwwvvwwwwwxyy+++zzyxw....
(PID.TID 0000.0001)     25 ..............wxxv...kkk...ooopqrrrrrssrrrrrrrssssqqpppppppppppoo...vvutuuvvwxyyyxxvvu....
(PID.TID 0000.0001)     24 ............uvvwwur.lmlk...nmm.pqqqqrrrrrqqqqrrqqrpppppooooonmmmnooo.uuuuuuttuvvvuvuut....
(PID.TID 0000.0001)     23 ............vvuvtqp.lmml...mln..ppppqpqppppppqpppppppppqppponnnnnoopm....xvuuuvvvvuuut....
(PID.TID 0000.0001)     22 r...........vuttsqqpnppn...mm.oppqqrrqqqqqqppppqqrrrqqqrrppppoopooomjj......uuvvvvvuttssrr
(PID.TID 0000.0001)     21 qmm........ttsssssssrsqon.....opqqqqqqqrrrrqqqssssssrrrrrrrrpqqqppomll........tvvvvuttssrr
(PID.TID 0000.0001)     20 sqq.......sttssrrsrrrrpol......p.qrqpqrrrrrrrstttttsssrrsssrqrrrrqqqpo.........wwwvvvuuutt
(PID.TID 0000.0001)     19 tsr.......ssssrrrrpppppnmmm...oqq.....qrqqsrrstttuuuttssttssrrssrrrrqq...........wwwvuvvvv
(PID.TID 0000.0001)     18 wut.......ssrrrrrqppppppppoooorrr...poqqqprrrttttuuutuuuuuutttttttutsss..........yyxwwxwxx
(PID.TID 0000.0001)     17 wwu.......s.rrrrrrqppppqqqqqqqr.....rrsrqrsssuusrtuuuvvvwwvvvuuuuutttss.........xyzyyyyxxx
(PID.TID 0000.0001)     16 vvt......ss.qrrssrqrqpqrrrrrrr.......ssrrstsstusrsuuuvwwwwxxwwvvvuttttsr........yz+zzzxwww
(PID.TID 0000.0001)     15 utss....stt.rrssstttsrrsrstsr.........ssstttssttsuuttuvvvvwxwwwwwuttsssrr......xyyyyxyyxwv
(PID.TID 0000.0001)     14 utts....sstrrssstuuuuuuuuuutt.........stttuutttttttuttttttuvvvvvvutsrqrrr.....vxxwwwwxwvwv
(PID.TID 0000.0001)     13 uuut....ttttttttuuuuuvtuuuuuu.........ttttuutttttttuutsssstttttstsqrqqppp....uwwwvuvvvutvv
(PID.TID 0000.0001)     12 ttttttttttttttttttttttssuuuuutuuut....tttttttttttsssssrrrrrrrqqqqqppppoo.....rvvuuttttttuu
(PID.TID 0000.0001)     11 rqsttttttttuuttttsssssrrstttttttsss..ttttts.tsssrrrrqqqqqppppoonnooooooo....oruttttsssrqrs
(PID.TID 0000.0001)     10 pppqrssrqqrqpqrssrrqqqqqqrrrrrrrrrrs.sssssr.rssrrqqpppppppooooonnnoooonn..moqrrrqqqqqqqqqq
(PID.TID 0000.0001)      9 oonooooooooonnnooooooooooppppppqqqqqrrrqrq.pppqqqqqppppppppppoooooooooll.lmoqqqqppooooopoo
(PID.TID 0000.0001)      8 nnnoonooooooonnnnnnnoooonoonoooppopqqqqqqqppopppqqqpppppppppppppppooopon.lnopppoooonnnnooo
(PID.TID 0000.0001)      7 ooooooooooopponnnooooooonnnnnonnooooooooopppppppoooooooooopppppppppoopqnnmnoooonnnonnnnnno
(PID.TID 0000.0001)      6 oooonnoonnnnooooooooooooonnnnnnnnnnnnnnnnoooopppooooooooooooooppppppppppoooooooonnnnnmnnnn
(PID.TID 0000.0001)      5 oooonnnnnnnnnnnnnnnnnoooooonnnnnnonnnnnnnnnoooooooooooonnnnnnooooooopoooonoooonnnnnnnooooo
(PID.TID 0000.0001)      4 oooonnnooonnnnnnnnnnnnnnoooooonnnooooonnnooooooooppponnnnmmmnnnnmnnoonnnnn..nnnooooooooooo
(PID.TID 0000.0001)      3 ooonnnnnnn............................nnoooooonnooooonnnnnnnoonnnnnnnnmmm..ooopooooooooooo
(PID.TID 0000.0001)      2 ..........................................pppooooonnnnnnoooppppo..nnnn.....qqqpppoooooo...
(PID.TID 0000.0001)      1 ..........................................................................................
(PID.TID 0000.0001) // =======================================================
(PID.TID 0000.0001) // END OF FIELD                                          =
(PID.TID 0000.0001) // =======================================================
(PID.TID 0000.0001) 
(PID.TID 0000.0001) Start initial hydrostatic pressure computation
(PID.TID 0000.0001) Pressure is predetermined for buoyancyRelation OCEANIC
(PID.TID 0000.0001) 
(PID.TID 0000.0001)  MDSREADFIELD: opening file: xx_theta.0000000000.001.001.data
(PID.TID 0000.0001)  MDSREADFIELD: opening file: xx_salt.0000000000.001.001.data
(PID.TID 0000.0001)  MDSREADFIELD: opening file: xx_diffkr.0000000000.001.001.data
(PID.TID 0000.0001)  MDSREADFIELD: opening global file: trenberth_taux.bin
(PID.TID 0000.0001)  MDSREADFIELD: opening global file: trenberth_tauy.bin
(PID.TID 0000.0001)  MDSREADFIELD: opening global file: ncep_qnet.bin
(PID.TID 0000.0001)  MDSREADFIELD: opening global file: lev_sst.bin
(PID.TID 0000.0001)  MDSREADFIELD: opening global file: lev_sss.bin
(PID.TID 0000.0001) // =======================================================
(PID.TID 0000.0001) // Model current state
(PID.TID 0000.0001) // =======================================================
(PID.TID 0000.0001) 
S/R EXTERNAL_FIELDS_LOAD: Reading new data:   12    1         0  0.000000000000E+00
(PID.TID 0000.0001)  MDSREADFIELD: opening global file: trenberth_taux.bin
(PID.TID 0000.0001)  MDSREADFIELD: opening global file: trenberth_taux.bin
(PID.TID 0000.0001)  MDSREADFIELD: opening global file: trenberth_tauy.bin
(PID.TID 0000.0001)  MDSREADFIELD: opening global file: trenberth_tauy.bin
(PID.TID 0000.0001)  MDSREADFIELD: opening global file: ncep_qnet.bin
(PID.TID 0000.0001)  MDSREADFIELD: opening global file: ncep_qnet.bin
(PID.TID 0000.0001)  MDSREADFIELD: opening global file: lev_sst.bin
(PID.TID 0000.0001)  MDSREADFIELD: opening global file: lev_sst.bin
(PID.TID 0000.0001)  MDSREADFIELD: opening global file: lev_sss.bin
(PID.TID 0000.0001)  MDSREADFIELD: opening global file: lev_sss.bin
time,SST,SSS,fu,fv,Q,E-P,i0,i1,a,b =   0.0000E+00  5.3151E-02  3.4364E+01 -4.0500E-02 -6.3753E-02  2.6510E+02  0.0000E+00    12     1  5.0000E-01  5.0000E-01
time,fu0,fu1,fu =   0.0000E+00 -4.5368E-02 -3.5633E-02 -4.0500E-02  5.000000000000000E-01  5.000000000000000E-01
(PID.TID 0000.0001)  MDSREADFIELD: opening file: xx_tauu.0000000000.001.001.data
(PID.TID 0000.0001)  MDSREADFIELD: opening file: xx_tauv.0000000000.001.001.data
(PID.TID 0000.0001)  MDSREADFIELD: opening file: xx_sflux.0000000000.001.001.data
(PID.TID 0000.0001)  MDSREADFIELD: opening file: xx_hflux.0000000000.001.001.data
 cg2d: Sum(rhs),rhsMax =  -5.41233724504764E-16  2.53364304519873E+00
time,SST,SSS,fu,fv,Q,E-P,i0,i1,a,b =   4.3200E+04  8.3327E-02  3.4375E+01 -4.0338E-02 -6.3536E-02  2.6512E+02  0.0000E+00    12     1  5.1667E-01  4.8333E-01
time,fu0,fu1,fu =   4.3200E+04 -4.5368E-02 -3.5633E-02 -4.0338E-02  5.166666666666667E-01  4.833333333333333E-01
 cg2d: Sum(rhs),rhsMax =   6.27831120425526E-14  5.05307478634997E+00
time,SST,SSS,fu,fv,Q,E-P,i0,i1,a,b =   8.6400E+04  1.1350E-01  3.4387E+01 -4.0176E-02 -6.3320E-02  2.6514E+02  0.0000E+00    12     1  5.3333E-01  4.6667E-01
time,fu0,fu1,fu =   8.6400E+04 -4.5368E-02 -3.5633E-02 -4.0176E-02  5.333333333333333E-01  4.666666666666667E-01
 cg2d: Sum(rhs),rhsMax =   9.78488123859478E-14  6.32564766002464E+00
time,SST,SSS,fu,fv,Q,E-P,i0,i1,a,b =   1.2960E+05  1.4368E-01  3.4399E+01 -4.0014E-02 -6.3103E-02  2.6516E+02  0.0000E+00    12     1  5.5000E-01  4.5000E-01
time,fu0,fu1,fu =   1.2960E+05 -4.5368E-02 -3.5633E-02 -4.0014E-02  5.500000000000000E-01  4.500000000000000E-01
 cg2d: Sum(rhs),rhsMax =  -7.64319163515381E-15  6.76202107413719E+00
time,SST,SSS,fu,fv,Q,E-P,i0,i1,a,b =   1.7280E+05  1.7385E-01  3.4410E+01 -3.9851E-02 -6.2886E-02  2.6519E+02  0.0000E+00    12     1  5.6667E-01  4.3333E-01
time,fu0,fu1,fu =   1.7280E+05 -4.5368E-02 -3.5633E-02 -3.9851E-02  5.666666666666667E-01  4.333333333333333E-01
 cg2d: Sum(rhs),rhsMax =   2.63174898540441E-14  6.91128535917370E+00
time,SST,SSS,fu,fv,Q,E-P,i0,i1,a,b =   2.1600E+05  2.0403E-01  3.4422E+01 -3.9689E-02 -6.2670E-02  2.6521E+02  0.0000E+00    12     1  5.8333E-01  4.1667E-01
time,fu0,fu1,fu =   2.1600E+05 -4.5368E-02 -3.5633E-02 -3.9689E-02  5.833333333333334E-01  4.166666666666666E-01
 cg2d: Sum(rhs),rhsMax =   5.52795656472149E-14  6.96038704691244E+00
time,SST,SSS,fu,fv,Q,E-P,i0,i1,a,b =   2.5920E+05  2.3421E-01  3.4434E+01 -3.9527E-02 -6.2453E-02  2.6523E+02  0.0000E+00    12     1  6.0000E-01  4.0000E-01
time,fu0,fu1,fu =   2.5920E+05 -4.5368E-02 -3.5633E-02 -3.9527E-02  6.000000000000000E-01  4.000000000000000E-01
 cg2d: Sum(rhs),rhsMax =  -1.01862095147620E-13  7.26221759046288E+00
time,SST,SSS,fu,fv,Q,E-P,i0,i1,a,b =   3.0240E+05  2.6438E-01  3.4446E+01 -3.9365E-02 -6.2237E-02  2.6525E+02  0.0000E+00    12     1  6.1667E-01  3.8333E-01
time,fu0,fu1,fu =   3.0240E+05 -4.5368E-02 -3.5633E-02 -3.9365E-02  6.166666666666667E-01  3.833333333333333E-01
 cg2d: Sum(rhs),rhsMax =  -1.73666040315795E-13  7.87499194900247E+00
time,SST,SSS,fu,fv,Q,E-P,i0,i1,a,b =   3.4560E+05  2.9456E-01  3.4457E+01 -3.9202E-02 -6.2020E-02  2.6528E+02  0.0000E+00    12     1  6.3333E-01  3.6667E-01
time,fu0,fu1,fu =   3.4560E+05 -4.5368E-02 -3.5633E-02 -3.9202E-02  6.333333333333333E-01  3.666666666666667E-01
 cg2d: Sum(rhs),rhsMax =  -1.34611072288848E-13  8.21213972807563E+00
time,SST,SSS,fu,fv,Q,E-P,i0,i1,a,b =   3.8880E+05  3.2473E-01  3.4469E+01 -3.9040E-02 -6.1804E-02  2.6530E+02  0.0000E+00    12     1  6.5000E-01  3.5000E-01
time,fu0,fu1,fu =   3.8880E+05 -4.5368E-02 -3.5633E-02 -3.9040E-02  6.500000000000000E-01  3.500000000000000E-01
 cg2d: Sum(rhs),rhsMax =  -2.67206395898612E-13  8.31512136376636E+00
time,SST,SSS,fu,fv,Q,E-P,i0,i1,a,b =   4.3200E+05  3.5491E-01  3.4481E+01 -3.8878E-02 -6.1587E-02  2.6532E+02  0.0000E+00    12     1  6.6667E-01  3.3333E-01
time,fu0,fu1,fu =   4.3200E+05 -4.5368E-02 -3.5633E-02 -3.8878E-02  6.666666666666666E-01  3.333333333333334E-01
 cg2d: Sum(rhs),rhsMax =  -1.09624722494095E-12  8.25257067290291E+00
time,SST,SSS,fu,fv,Q,E-P,i0,i1,a,b =   4.7520E+05  3.8508E-01  3.4492E+01 -3.8716E-02 -6.1371E-02  2.6534E+02  0.0000E+00    12     1  6.8333E-01  3.1667E-01
time,fu0,fu1,fu =   4.7520E+05 -4.5368E-02 -3.5633E-02 -3.8716E-02  6.833333333333333E-01  3.166666666666667E-01
 cg2d: Sum(rhs),rhsMax =  -8.68197007342086E-13  8.09293762885827E+00
time,SST,SSS,fu,fv,Q,E-P,i0,i1,a,b =   5.1840E+05  4.1526E-01  3.4504E+01 -3.8553E-02 -6.1154E-02  2.6537E+02  0.0000E+00    12     1  7.0000E-01  3.0000E-01
time,fu0,fu1,fu =   5.1840E+05 -4.5368E-02 -3.5633E-02 -3.8553E-02  7.000000000000000E-01  3.000000000000000E-01
 cg2d: Sum(rhs),rhsMax =  -8.66933261289837E-13  8.55637530605071E+00
time,SST,SSS,fu,fv,Q,E-P,i0,i1,a,b =   5.6160E+05  4.4544E-01  3.4516E+01 -3.8391E-02 -6.0938E-02  2.6539E+02  0.0000E+00    12     1  7.1667E-01  2.8333E-01
time,fu0,fu1,fu =   5.6160E+05 -4.5368E-02 -3.5633E-02 -3.8391E-02  7.166666666666667E-01  2.833333333333333E-01
 cg2d: Sum(rhs),rhsMax =  -1.10961066723814E-12  9.25214403713224E+00
time,SST,SSS,fu,fv,Q,E-P,i0,i1,a,b =   6.0480E+05  4.7561E-01  3.4527E+01 -3.8229E-02 -6.0721E-02  2.6541E+02  0.0000E+00    12     1  7.3333E-01  2.6667E-01
time,fu0,fu1,fu =   6.0480E+05 -4.5368E-02 -3.5633E-02 -3.8229E-02  7.333333333333333E-01  2.666666666666667E-01
 cg2d: Sum(rhs),rhsMax =  -8.45556263895375E-13  9.75412758742914E+00
time,SST,SSS,fu,fv,Q,E-P,i0,i1,a,b =   6.4800E+05  5.0579E-01  3.4539E+01 -3.8067E-02 -6.0505E-02  2.6543E+02  0.0000E+00    12     1  7.5000E-01  2.5000E-01
time,fu0,fu1,fu =   6.4800E+05 -4.5368E-02 -3.5633E-02 -3.8067E-02  7.500000000000000E-01  2.500000000000000E-01
 cg2d: Sum(rhs),rhsMax =  -7.80358416774263E-13  1.00472791850534E+01
time,SST,SSS,fu,fv,Q,E-P,i0,i1,a,b =   6.9120E+05  5.3596E-01  3.4551E+01 -3.7904E-02 -6.0288E-02  2.6546E+02  0.0000E+00    12     1  7.6667E-01  2.3333E-01
time,fu0,fu1,fu =   6.9120E+05 -4.5368E-02 -3.5633E-02 -3.7904E-02  7.666666666666667E-01  2.333333333333333E-01
 cg2d: Sum(rhs),rhsMax =  -8.89460380348872E-13  1.01282964952821E+01
time,SST,SSS,fu,fv,Q,E-P,i0,i1,a,b =   7.3440E+05  5.6614E-01  3.4563E+01 -3.7742E-02 -6.0072E-02  2.6548E+02  0.0000E+00    12     1  7.8333E-01  2.1667E-01
time,fu0,fu1,fu =   7.3440E+05 -4.5368E-02 -3.5633E-02 -3.7742E-02  7.833333333333333E-01  2.166666666666667E-01
 cg2d: Sum(rhs),rhsMax =  -8.16511788737095E-13  1.00066236471319E+01
time,SST,SSS,fu,fv,Q,E-P,i0,i1,a,b =   7.7760E+05  5.9632E-01  3.4574E+01 -3.7580E-02 -5.9855E-02  2.6550E+02  0.0000E+00    12     1  8.0000E-01  2.0000E-01
time,fu0,fu1,fu =   7.7760E+05 -4.5368E-02 -3.5633E-02 -3.7580E-02  8.000000000000000E-01  2.000000000000000E-01
 cg2d: Sum(rhs),rhsMax =  -6.98191504611145E-13  9.70409645617005E+00
time,SST,SSS,fu,fv,Q,E-P,i0,i1,a,b =   8.2080E+05  6.2649E-01  3.4586E+01 -3.7418E-02 -5.9638E-02  2.6552E+02  0.0000E+00    12     1  8.1667E-01  1.8333E-01
time,fu0,fu1,fu =   8.2080E+05 -4.5368E-02 -3.5633E-02 -3.7418E-02  8.166666666666667E-01  1.833333333333333E-01
 cg2d: Sum(rhs),rhsMax =  -9.30384241870641E-13  9.47667283577994E+00
time,SST,SSS,fu,fv,Q,E-P,i0,i1,a,b =   8.6400E+05  6.5667E-01  3.4598E+01 -3.7255E-02 -5.9422E-02  2.6555E+02  0.0000E+00    12     1  8.3333E-01  1.6667E-01
time,fu0,fu1,fu =   8.6400E+05 -4.5368E-02 -3.5633E-02 -3.7255E-02  8.333333333333334E-01  1.666666666666666E-01
 cg2d: Sum(rhs),rhsMax =  -8.68891764094215E-13  1.03748401635907E+01
time,SST,SSS,fu,fv,Q,E-P,i0,i1,a,b =   9.0720E+05  6.8684E-01  3.4609E+01 -3.7093E-02 -5.9205E-02  2.6557E+02  0.0000E+00    12     1  8.5000E-01  1.5000E-01
time,fu0,fu1,fu =   9.0720E+05 -4.5368E-02 -3.5633E-02 -3.7093E-02  8.500000000000000E-01  1.500000000000000E-01
 cg2d: Sum(rhs),rhsMax =  -6.82435011278848E-13  1.11482726022286E+01
time,SST,SSS,fu,fv,Q,E-P,i0,i1,a,b =   9.5040E+05  7.1702E-01  3.4621E+01 -3.6931E-02 -5.8989E-02  2.6559E+02  0.0000E+00    12     1  8.6667E-01  1.3333E-01
time,fu0,fu1,fu =   9.5040E+05 -4.5368E-02 -3.5633E-02 -3.6931E-02  8.666666666666667E-01  1.333333333333333E-01
 cg2d: Sum(rhs),rhsMax =  -7.08854849817975E-13  1.17644190526975E+01
time,SST,SSS,fu,fv,Q,E-P,i0,i1,a,b =   9.9360E+05  7.4719E-01  3.4633E+01 -3.6769E-02 -5.8772E-02  2.6561E+02  0.0000E+00    12     1  8.8333E-01  1.1667E-01
time,fu0,fu1,fu =   9.9360E+05 -4.5368E-02 -3.5633E-02 -3.6769E-02  8.833333333333333E-01  1.166666666666667E-01
 cg2d: Sum(rhs),rhsMax =  -7.31274416021499E-13  1.21959720875397E+01
time,SST,SSS,fu,fv,Q,E-P,i0,i1,a,b =   1.0368E+06  7.7737E-01  3.4644E+01 -3.6606E-02 -5.8556E-02  2.6564E+02  0.0000E+00    12     1  9.0000E-01  1.0000E-01
time,fu0,fu1,fu =   1.0368E+06 -4.5368E-02 -3.5633E-02 -3.6606E-02  9.000000000000000E-01  9.999999999999998E-02
 cg2d: Sum(rhs),rhsMax =  -7.36074395879527E-13  1.24221987652346E+01
time,SST,SSS,fu,fv,Q,E-P,i0,i1,a,b =   1.0800E+06  8.0755E-01  3.4656E+01 -3.6444E-02 -5.8339E-02  2.6566E+02  0.0000E+00    12     1  9.1667E-01  8.3333E-02
time,fu0,fu1,fu =   1.0800E+06 -4.5368E-02 -3.5633E-02 -3.6444E-02  9.166666666666666E-01  8.333333333333337E-02
 cg2d: Sum(rhs),rhsMax =  -7.87278228719934E-13  1.24298971531029E+01
time,SST,SSS,fu,fv,Q,E-P,i0,i1,a,b =   1.1232E+06  8.3772E-01  3.4668E+01 -3.6282E-02 -5.8123E-02  2.6568E+02  0.0000E+00    12     1  9.3333E-01  6.6667E-02
time,fu0,fu1,fu =   1.1232E+06 -4.5368E-02 -3.5633E-02 -3.6282E-02  9.333333333333333E-01  6.666666666666665E-02
 cg2d: Sum(rhs),rhsMax =  -9.36254546113346E-13  1.22139653314158E+01
time,SST,SSS,fu,fv,Q,E-P,i0,i1,a,b =   1.1664E+06  8.6790E-01  3.4679E+01 -3.6120E-02 -5.7906E-02  2.6570E+02  0.0000E+00    12     1  9.5000E-01  5.0000E-02
time,fu0,fu1,fu =   1.1664E+06 -4.5368E-02 -3.5633E-02 -3.6120E-02  9.500000000000000E-01  5.000000000000004E-02
 cg2d: Sum(rhs),rhsMax =  -9.28979115855100E-13  1.17775992284633E+01
time,SST,SSS,fu,fv,Q,E-P,i0,i1,a,b =   1.2096E+06  8.9807E-01  3.4691E+01 -3.5957E-02 -5.7690E-02  2.6573E+02  0.0000E+00    12     1  9.6667E-01  3.3333E-02
time,fu0,fu1,fu =   1.2096E+06 -4.5368E-02 -3.5633E-02 -3.5957E-02  9.666666666666667E-01  3.333333333333333E-02
 cg2d: Sum(rhs),rhsMax =  -1.13674000767894E-12  1.11321543546333E+01
time,SST,SSS,fu,fv,Q,E-P,i0,i1,a,b =   1.2528E+06  9.2825E-01  3.4703E+01 -3.5795E-02 -5.7473E-02  2.6575E+02  0.0000E+00    12     1  9.8333E-01  1.6667E-02
time,fu0,fu1,fu =   1.2528E+06 -4.5368E-02 -3.5633E-02 -3.5795E-02  9.833333333333333E-01  1.666666666666672E-02
 cg2d: Sum(rhs),rhsMax =  -1.41931952302166E-12  1.02967139421685E+01
S/R EXTERNAL_FIELDS_LOAD: Reading new data:    1    2        30  1.296000000000E+06
(PID.TID 0000.0001)  MDSREADFIELD: opening global file: trenberth_taux.bin
(PID.TID 0000.0001)  MDSREADFIELD: opening global file: trenberth_taux.bin
(PID.TID 0000.0001)  MDSREADFIELD: opening global file: trenberth_tauy.bin
(PID.TID 0000.0001)  MDSREADFIELD: opening global file: trenberth_tauy.bin
(PID.TID 0000.0001)  MDSREADFIELD: opening global file: ncep_qnet.bin
(PID.TID 0000.0001)  MDSREADFIELD: opening global file: ncep_qnet.bin
(PID.TID 0000.0001)  MDSREADFIELD: opening global file: lev_sst.bin
(PID.TID 0000.0001)  MDSREADFIELD: opening global file: lev_sst.bin
(PID.TID 0000.0001)  MDSREADFIELD: opening global file: lev_sss.bin
(PID.TID 0000.0001)  MDSREADFIELD: opening global file: lev_sss.bin
time,SST,SSS,fu,fv,Q,E-P,i0,i1,a,b =   1.2960E+06  9.5843E-01  3.4715E+01 -3.5633E-02 -5.7257E-02  2.6577E+02  0.0000E+00     1     2  0.0000E+00  1.0000E+00
time,fu0,fu1,fu =   1.2960E+06 -3.5633E-02 -1.4435E-02 -3.5633E-02  0.000000000000000E+00  1.000000000000000E+00
 cg2d: Sum(rhs),rhsMax =  -1.18140219829144E-12  9.29740447801208E+00
time,SST,SSS,fu,fv,Q,E-P,i0,i1,a,b =   1.3392E+06  9.3359E-01  3.4710E+01 -3.5280E-02 -5.6596E-02  2.6535E+02  0.0000E+00     1     2  1.6667E-02  9.8333E-01
time,fu0,fu1,fu =   1.3392E+06 -3.5633E-02 -1.4435E-02 -3.5280E-02  1.666666666666667E-02  9.833333333333333E-01
 cg2d: Sum(rhs),rhsMax =  -1.21165577571247E-12  9.11143480608331E+00
time,SST,SSS,fu,fv,Q,E-P,i0,i1,a,b =   1.3824E+06  9.0875E-01  3.4705E+01 -3.4926E-02 -5.5936E-02  2.6493E+02  0.0000E+00     1     2  3.3333E-02  9.6667E-01
time,fu0,fu1,fu =   1.3824E+06 -3.5633E-02 -1.4435E-02 -3.4926E-02  3.333333333333333E-02  9.666666666666667E-01
 cg2d: Sum(rhs),rhsMax =  -1.76005737761997E-12  9.23484282339445E+00
time,SST,SSS,fu,fv,Q,E-P,i0,i1,a,b =   1.4256E+06  8.8391E-01  3.4700E+01 -3.4573E-02 -5.5276E-02  2.6451E+02  0.0000E+00     1     2  5.0000E-02  9.5000E-01
time,fu0,fu1,fu =   1.4256E+06 -3.5633E-02 -1.4435E-02 -3.4573E-02  5.000000000000000E-02  9.500000000000000E-01
 cg2d: Sum(rhs),rhsMax =  -1.29149468897083E-12  9.27184051403945E+00
time,SST,SSS,fu,fv,Q,E-P,i0,i1,a,b =   1.4688E+06  8.5907E-01  3.4695E+01 -3.4220E-02 -5.4615E-02  2.6408E+02  0.0000E+00     1     2  6.6667E-02  9.3333E-01
time,fu0,fu1,fu =   1.4688E+06 -3.5633E-02 -1.4435E-02 -3.4220E-02  6.666666666666667E-02  9.333333333333333E-01
 cg2d: Sum(rhs),rhsMax =  -1.36588657051462E-12  9.21972028018107E+00
time,SST,SSS,fu,fv,Q,E-P,i0,i1,a,b =   1.5120E+06  8.3424E-01  3.4690E+01 -3.3866E-02 -5.3955E-02  2.6366E+02  0.0000E+00     1     2  8.3333E-02  9.1667E-01
time,fu0,fu1,fu =   1.5120E+06 -3.5633E-02 -1.4435E-02 -3.3866E-02  8.333333333333333E-02  9.166666666666666E-01
 cg2d: Sum(rhs),rhsMax =  -9.67198543477821E-13  9.07797465695669E+00
time,SST,SSS,fu,fv,Q,E-P,i0,i1,a,b =   1.5552E+06  8.0940E-01  3.4685E+01 -3.3513E-02 -5.3295E-02  2.6324E+02  0.0000E+00     1     2  1.0000E-01  9.0000E-01
time,fu0,fu1,fu =   1.5552E+06 -3.5633E-02 -1.4435E-02 -3.3513E-02  1.000000000000000E-01  9.000000000000000E-01
 cg2d: Sum(rhs),rhsMax =  -8.63496774083927E-13  8.84823876811064E+00
time,SST,SSS,fu,fv,Q,E-P,i0,i1,a,b =   1.5984E+06  7.8456E-01  3.4680E+01 -3.3160E-02 -5.2634E-02  2.6282E+02  0.0000E+00     1     2  1.1667E-01  8.8333E-01
time,fu0,fu1,fu =   1.5984E+06 -3.5633E-02 -1.4435E-02 -3.3160E-02  1.166666666666667E-01  8.833333333333333E-01
 cg2d: Sum(rhs),rhsMax =  -9.06420771773497E-13  8.53412704852029E+00
time,SST,SSS,fu,fv,Q,E-P,i0,i1,a,b =   1.6416E+06  7.5972E-01  3.4675E+01 -3.2807E-02 -5.1974E-02  2.6240E+02  0.0000E+00     1     2  1.3333E-01  8.6667E-01
time,fu0,fu1,fu =   1.6416E+06 -3.5633E-02 -1.4435E-02 -3.2807E-02  1.333333333333333E-01  8.666666666666667E-01
 cg2d: Sum(rhs),rhsMax =  -4.73052153004971E-13  8.14100360243354E+00
time,SST,SSS,fu,fv,Q,E-P,i0,i1,a,b =   1.6848E+06  7.3488E-01  3.4671E+01 -3.2453E-02 -5.1313E-02  2.6198E+02  0.0000E+00     1     2  1.5000E-01  8.5000E-01
time,fu0,fu1,fu =   1.6848E+06 -3.5633E-02 -1.4435E-02 -3.2453E-02  1.500000000000000E-01  8.500000000000000E-01
 cg2d: Sum(rhs),rhsMax =  -5.05658015459431E-13  7.67572500521107E+00
time,SST,SSS,fu,fv,Q,E-P,i0,i1,a,b =   1.7280E+06  7.1005E-01  3.4666E+01 -3.2100E-02 -5.0653E-02  2.6156E+02  0.0000E+00     1     2  1.6667E-01  8.3333E-01
time,fu0,fu1,fu =   1.7280E+06 -3.5633E-02 -1.4435E-02 -3.2100E-02  1.666666666666667E-01  8.333333333333334E-01
 cg2d: Sum(rhs),rhsMax =  -8.23029144836340E-13  7.14638711661611E+00
time,SST,SSS,fu,fv,Q,E-P,i0,i1,a,b =   1.7712E+06  6.8521E-01  3.4661E+01 -3.1747E-02 -4.9993E-02  2.6113E+02  0.0000E+00     1     2  1.8333E-01  8.1667E-01
time,fu0,fu1,fu =   1.7712E+06 -3.5633E-02 -1.4435E-02 -3.1747E-02  1.833333333333333E-01  8.166666666666667E-01
 cg2d: Sum(rhs),rhsMax =  -5.92095816820404E-13  7.16032442575611E+00
time,SST,SSS,fu,fv,Q,E-P,i0,i1,a,b =   1.8144E+06  6.6037E-01  3.4656E+01 -3.1393E-02 -4.9332E-02  2.6071E+02  0.0000E+00     1     2  2.0000E-01  8.0000E-01
time,fu0,fu1,fu =   1.8144E+06 -3.5633E-02 -1.4435E-02 -3.1393E-02  2.000000000000000E-01  8.000000000000000E-01
 cg2d: Sum(rhs),rhsMax =  -2.28594920770320E-13  7.19604410591255E+00
time,SST,SSS,fu,fv,Q,E-P,i0,i1,a,b =   1.8576E+06  6.3553E-01  3.4651E+01 -3.1040E-02 -4.8672E-02  2.6029E+02  0.0000E+00     1     2  2.1667E-01  7.8333E-01
time,fu0,fu1,fu =   1.8576E+06 -3.5633E-02 -1.4435E-02 -3.1040E-02  2.166666666666667E-01  7.833333333333333E-01
 cg2d: Sum(rhs),rhsMax =  -7.84705633805061E-13  7.21623308436997E+00
time,SST,SSS,fu,fv,Q,E-P,i0,i1,a,b =   1.9008E+06  6.1069E-01  3.4646E+01 -3.0687E-02 -4.8012E-02  2.5987E+02  0.0000E+00     1     2  2.3333E-01  7.6667E-01
time,fu0,fu1,fu =   1.9008E+06 -3.5633E-02 -1.4435E-02 -3.0687E-02  2.333333333333333E-01  7.666666666666666E-01
 cg2d: Sum(rhs),rhsMax =  -5.38874500577435E-14  7.36407413913870E+00
time,SST,SSS,fu,fv,Q,E-P,i0,i1,a,b =   1.9440E+06  5.8585E-01  3.4641E+01 -3.0333E-02 -4.7351E-02  2.5945E+02  0.0000E+00     1     2  2.5000E-01  7.5000E-01
time,fu0,fu1,fu =   1.9440E+06 -3.5633E-02 -1.4435E-02 -3.0333E-02  2.500000000000000E-01  7.500000000000000E-01
 cg2d: Sum(rhs),rhsMax =   1.48984991010792E-13  7.63411971566936E+00
time,SST,SSS,fu,fv,Q,E-P,i0,i1,a,b =   1.9872E+06  5.6102E-01  3.4636E+01 -2.9980E-02 -4.6691E-02  2.5903E+02  0.0000E+00     1     2  2.6667E-01  7.3333E-01
time,fu0,fu1,fu =   1.9872E+06 -3.5633E-02 -1.4435E-02 -2.9980E-02  2.666666666666667E-01  7.333333333333334E-01
 cg2d: Sum(rhs),rhsMax =   2.79734568842116E-13  7.83757942896408E+00
time,SST,SSS,fu,fv,Q,E-P,i0,i1,a,b =   2.0304E+06  5.3618E-01  3.4631E+01 -2.9627E-02 -4.6031E-02  2.5861E+02  0.0000E+00     1     2  2.8333E-01  7.1667E-01
time,fu0,fu1,fu =   2.0304E+06 -3.5633E-02 -1.4435E-02 -2.9627E-02  2.833333333333333E-01  7.166666666666667E-01
 cg2d: Sum(rhs),rhsMax =  -1.37737043992558E-14  7.97661619643511E+00
time,SST,SSS,fu,fv,Q,E-P,i0,i1,a,b =   2.0736E+06  5.1134E-01  3.4627E+01 -2.9273E-02 -4.5370E-02  2.5818E+02  0.0000E+00     1     2  3.0000E-01  7.0000E-01
time,fu0,fu1,fu =   2.0736E+06 -3.5633E-02 -1.4435E-02 -2.9273E-02  3.000000000000000E-01  7.000000000000000E-01
 cg2d: Sum(rhs),rhsMax =  -1.81799020282369E-15  8.05769497211973E+00
time,SST,SSS,fu,fv,Q,E-P,i0,i1,a,b =   2.1168E+06  4.8650E-01  3.4622E+01 -2.8920E-02 -4.4710E-02  2.5776E+02  0.0000E+00     1     2  3.1667E-01  6.8333E-01
time,fu0,fu1,fu =   2.1168E+06 -3.5633E-02 -1.4435E-02 -2.8920E-02  3.166666666666667E-01  6.833333333333333E-01
 cg2d: Sum(rhs),rhsMax =   1.25295607222853E-13  8.09041663245626E+00
time,SST,SSS,fu,fv,Q,E-P,i0,i1,a,b =   2.1600E+06  4.6166E-01  3.4617E+01 -2.8567E-02 -4.4050E-02  2.5734E+02  0.0000E+00     1     2  3.3333E-01  6.6667E-01
time,fu0,fu1,fu =   2.1600E+06 -3.5633E-02 -1.4435E-02 -2.8567E-02  3.333333333333333E-01  6.666666666666667E-01
 cg2d: Sum(rhs),rhsMax =   4.25041946083837E-13  8.08616407255559E+00
time,SST,SSS,fu,fv,Q,E-P,i0,i1,a,b =   2.2032E+06  4.3683E-01  3.4612E+01 -2.8214E-02 -4.3389E-02  2.5692E+02  0.0000E+00     1     2  3.5000E-01  6.5000E-01
time,fu0,fu1,fu =   2.2032E+06 -3.5633E-02 -1.4435E-02 -2.8214E-02  3.500000000000000E-01  6.500000000000000E-01
 cg2d: Sum(rhs),rhsMax =  -2.17666162871666E-13  8.05674080086255E+00
time,SST,SSS,fu,fv,Q,E-P,i0,i1,a,b =   2.2464E+06  4.1199E-01  3.4607E+01 -2.7860E-02 -4.2729E-02  2.5650E+02  0.0000E+00     1     2  3.6667E-01  6.3333E-01
time,fu0,fu1,fu =   2.2464E+06 -3.5633E-02 -1.4435E-02 -2.7860E-02  3.666666666666666E-01  6.333333333333333E-01
 cg2d: Sum(rhs),rhsMax =   4.81142903296927E-13  8.18299873665440E+00
time,SST,SSS,fu,fv,Q,E-P,i0,i1,a,b =   2.2896E+06  3.8715E-01  3.4602E+01 -2.7507E-02 -4.2069E-02  2.5608E+02  0.0000E+00     1     2  3.8333E-01  6.1667E-01
time,fu0,fu1,fu =   2.2896E+06 -3.5633E-02 -1.4435E-02 -2.7507E-02  3.833333333333334E-01  6.166666666666667E-01
 cg2d: Sum(rhs),rhsMax =   4.13176437508156E-13  9.40876932407817E+00
time,SST,SSS,fu,fv,Q,E-P,i0,i1,a,b =   2.3328E+06  3.6231E-01  3.4597E+01 -2.7154E-02 -4.1408E-02  2.5565E+02  0.0000E+00     1     2  4.0000E-01  6.0000E-01
time,fu0,fu1,fu =   2.3328E+06 -3.5633E-02 -1.4435E-02 -2.7154E-02  4.000000000000000E-01  6.000000000000000E-01
 cg2d: Sum(rhs),rhsMax =   3.24046345312468E-13  1.05293276777562E+01
time,SST,SSS,fu,fv,Q,E-P,i0,i1,a,b =   2.3760E+06  3.3747E-01  3.4592E+01 -2.6800E-02 -4.0748E-02  2.5523E+02  0.0000E+00     1     2  4.1667E-01  5.8333E-01
time,fu0,fu1,fu =   2.3760E+06 -3.5633E-02 -1.4435E-02 -2.6800E-02  4.166666666666667E-01  5.833333333333333E-01
 cg2d: Sum(rhs),rhsMax =   1.59652152609269E-12  1.15144709878764E+01
time,SST,SSS,fu,fv,Q,E-P,i0,i1,a,b =   2.4192E+06  3.1264E-01  3.4587E+01 -2.6447E-02 -4.0088E-02  2.5481E+02  0.0000E+00     1     2  4.3333E-01  5.6667E-01
time,fu0,fu1,fu =   2.4192E+06 -3.5633E-02 -1.4435E-02 -2.6447E-02  4.333333333333333E-01  5.666666666666667E-01
 cg2d: Sum(rhs),rhsMax =   1.34758176839611E-12  1.23395341345157E+01
time,SST,SSS,fu,fv,Q,E-P,i0,i1,a,b =   2.4624E+06  2.8780E-01  3.4582E+01 -2.6094E-02 -3.9427E-02  2.5439E+02  0.0000E+00     1     2  4.5000E-01  5.5000E-01
time,fu0,fu1,fu =   2.4624E+06 -3.5633E-02 -1.4435E-02 -2.6094E-02  4.500000000000000E-01  5.500000000000000E-01
 cg2d: Sum(rhs),rhsMax =   1.38020844753228E-12  1.29859652791804E+01
time,SST,SSS,fu,fv,Q,E-P,i0,i1,a,b =   2.5056E+06  2.6296E-01  3.4578E+01 -2.5740E-02 -3.8767E-02  2.5397E+02  0.0000E+00     1     2  4.6667E-01  5.3333E-01
time,fu0,fu1,fu =   2.5056E+06 -3.5633E-02 -1.4435E-02 -2.5740E-02  4.666666666666667E-01  5.333333333333333E-01
 cg2d: Sum(rhs),rhsMax =   1.84736947961284E-12  1.34416460208635E+01
time,SST,SSS,fu,fv,Q,E-P,i0,i1,a,b =   2.5488E+06  2.3812E-01  3.4573E+01 -2.5387E-02 -3.8106E-02  2.5355E+02  0.0000E+00     1     2  4.8333E-01  5.1667E-01
time,fu0,fu1,fu =   2.5488E+06 -3.5633E-02 -1.4435E-02 -2.5387E-02  4.833333333333333E-01  5.166666666666666E-01
 cg2d: Sum(rhs),rhsMax =   2.45307940627271E-12  1.37009638663432E+01
time,SST,SSS,fu,fv,Q,E-P,i0,i1,a,b =   2.5920E+06  2.1328E-01  3.4568E+01 -2.5034E-02 -3.7446E-02  2.5313E+02  0.0000E+00     1     2  5.0000E-01  5.0000E-01
time,fu0,fu1,fu =   2.5920E+06 -3.5633E-02 -1.4435E-02 -2.5034E-02  5.000000000000000E-01  5.000000000000000E-01
 cg2d: Sum(rhs),rhsMax =   2.36444197554420E-12  1.37646537303193E+01
time,SST,SSS,fu,fv,Q,E-P,i0,i1,a,b =   2.6352E+06  1.8845E-01  3.4563E+01 -2.4681E-02 -3.6786E-02  2.5270E+02  0.0000E+00     1     2  5.1667E-01  4.8333E-01
time,fu0,fu1,fu =   2.6352E+06 -3.5633E-02 -1.4435E-02 -2.4681E-02  5.166666666666667E-01  4.833333333333333E-01
 cg2d: Sum(rhs),rhsMax =   2.82933398931817E-12  1.36394322436377E+01
time,SST,SSS,fu,fv,Q,E-P,i0,i1,a,b =   2.6784E+06  1.6361E-01  3.4558E+01 -2.4327E-02 -3.6125E-02  2.5228E+02  0.0000E+00     1     2  5.3333E-01  4.6667E-01
time,fu0,fu1,fu =   2.6784E+06 -3.5633E-02 -1.4435E-02 -2.4327E-02  5.333333333333333E-01  4.666666666666667E-01
 cg2d: Sum(rhs),rhsMax =   2.89362284133787E-12  1.33374538688876E+01
time,SST,SSS,fu,fv,Q,E-P,i0,i1,a,b =   2.7216E+06  1.3877E-01  3.4553E+01 -2.3974E-02 -3.5465E-02  2.5186E+02  0.0000E+00     1     2  5.5000E-01  4.5000E-01
time,fu0,fu1,fu =   2.7216E+06 -3.5633E-02 -1.4435E-02 -2.3974E-02  5.500000000000000E-01  4.500000000000000E-01
 cg2d: Sum(rhs),rhsMax =   2.85577117509206E-12  1.28756213510657E+01
time,SST,SSS,fu,fv,Q,E-P,i0,i1,a,b =   2.7648E+06  1.1393E-01  3.4548E+01 -2.3621E-02 -3.4805E-02  2.5144E+02  0.0000E+00     1     2  5.6667E-01  4.3333E-01
time,fu0,fu1,fu =   2.7648E+06 -3.5633E-02 -1.4435E-02 -2.3621E-02  5.666666666666667E-01  4.333333333333333E-01
 cg2d: Sum(rhs),rhsMax =   3.63407914871772E-12  1.22747850526171E+01
time,SST,SSS,fu,fv,Q,E-P,i0,i1,a,b =   2.8080E+06  8.9094E-02  3.4543E+01 -2.3267E-02 -3.4144E-02  2.5102E+02  0.0000E+00     1     2  5.8333E-01  4.1667E-01
time,fu0,fu1,fu =   2.8080E+06 -3.5633E-02 -1.4435E-02 -2.3267E-02  5.833333333333334E-01  4.166666666666666E-01
 cg2d: Sum(rhs),rhsMax =   3.35338007362296E-12  1.15588664230174E+01
time,SST,SSS,fu,fv,Q,E-P,i0,i1,a,b =   2.8512E+06  6.4256E-02  3.4538E+01 -2.2914E-02 -3.3484E-02  2.5060E+02  0.0000E+00     1     2  6.0000E-01  4.0000E-01
time,fu0,fu1,fu =   2.8512E+06 -3.5633E-02 -1.4435E-02 -2.2914E-02  6.000000000000000E-01  4.000000000000000E-01
 cg2d: Sum(rhs),rhsMax =   3.63126195779273E-12  1.07539403988484E+01
time,SST,SSS,fu,fv,Q,E-P,i0,i1,a,b =   2.8944E+06  3.9418E-02  3.4534E+01 -2.2561E-02 -3.2824E-02  2.5018E+02  0.0000E+00     1     2  6.1667E-01  3.8333E-01
time,fu0,fu1,fu =   2.8944E+06 -3.5633E-02 -1.4435E-02 -2.2561E-02  6.166666666666667E-01  3.833333333333333E-01
 cg2d: Sum(rhs),rhsMax =   3.95186661172886E-12  9.88731006049129E+00
time,SST,SSS,fu,fv,Q,E-P,i0,i1,a,b =   2.9376E+06  1.4580E-02  3.4529E+01 -2.2207E-02 -3.2163E-02  2.4975E+02  0.0000E+00     1     2  6.3333E-01  3.6667E-01
time,fu0,fu1,fu =   2.9376E+06 -3.5633E-02 -1.4435E-02 -2.2207E-02  6.333333333333333E-01  3.666666666666667E-01
 cg2d: Sum(rhs),rhsMax =   3.81703002538814E-12  8.98660450467268E+00
time,SST,SSS,fu,fv,Q,E-P,i0,i1,a,b =   2.9808E+06 -1.0258E-02  3.4524E+01 -2.1854E-02 -3.1503E-02  2.4933E+02  0.0000E+00     1     2  6.5000E-01  3.5000E-01
time,fu0,fu1,fu =   2.9808E+06 -3.5633E-02 -1.4435E-02 -2.1854E-02  6.500000000000000E-01  3.500000000000000E-01
 cg2d: Sum(rhs),rhsMax =   3.71666586396202E-12  8.07892773764070E+00
time,SST,SSS,fu,fv,Q,E-P,i0,i1,a,b =   3.0240E+06 -3.5096E-02  3.4519E+01 -2.1501E-02 -3.0843E-02  2.4891E+02  0.0000E+00     1     2  6.6667E-01  3.3333E-01
time,fu0,fu1,fu =   3.0240E+06 -3.5633E-02 -1.4435E-02 -2.1501E-02  6.666666666666666E-01  3.333333333333334E-01
 cg2d: Sum(rhs),rhsMax =   3.39311911901063E-12  7.98205083991466E+00
time,SST,SSS,fu,fv,Q,E-P,i0,i1,a,b =   3.0672E+06 -5.9934E-02  3.4514E+01 -2.1147E-02 -3.0182E-02  2.4849E+02  0.0000E+00     1     2  6.8333E-01  3.1667E-01
time,fu0,fu1,fu =   3.0672E+06 -3.5633E-02 -1.4435E-02 -2.1147E-02  6.833333333333333E-01  3.166666666666667E-01
 cg2d: Sum(rhs),rhsMax =   2.70461431028934E-12  8.00388388981780E+00
time,SST,SSS,fu,fv,Q,E-P,i0,i1,a,b =   3.1104E+06 -8.4772E-02  3.4509E+01 -2.0794E-02 -2.9522E-02  2.4807E+02  0.0000E+00     1     2  7.0000E-01  3.0000E-01
time,fu0,fu1,fu =   3.1104E+06 -3.5633E-02 -1.4435E-02 -2.0794E-02  7.000000000000000E-01  3.000000000000000E-01
 cg2d: Sum(rhs),rhsMax =   3.20093951344802E-12  8.02911763578877E+00
time,SST,SSS,fu,fv,Q,E-P,i0,i1,a,b =   3.1536E+06 -1.0961E-01  3.4504E+01 -2.0441E-02 -2.8862E-02  2.4765E+02  0.0000E+00     1     2  7.1667E-01  2.8333E-01
time,fu0,fu1,fu =   3.1536E+06 -3.5633E-02 -1.4435E-02 -2.0441E-02  7.166666666666667E-01  2.833333333333333E-01
 cg2d: Sum(rhs),rhsMax =   3.14417242242016E-12  8.49105070553315E+00
time,SST,SSS,fu,fv,Q,E-P,i0,i1,a,b =   3.1968E+06 -1.3445E-01  3.4499E+01 -2.0088E-02 -2.8201E-02  2.4722E+02  0.0000E+00     1     2  7.3333E-01  2.6667E-01
time,fu0,fu1,fu =   3.1968E+06 -3.5633E-02 -1.4435E-02 -2.0088E-02  7.333333333333333E-01  2.666666666666667E-01
 cg2d: Sum(rhs),rhsMax =   2.59332832985848E-12  8.90375405844728E+00
time,SST,SSS,fu,fv,Q,E-P,i0,i1,a,b =   3.2400E+06 -1.5929E-01  3.4494E+01 -1.9734E-02 -2.7541E-02  2.4680E+02  0.0000E+00     1     2  7.5000E-01  2.5000E-01
time,fu0,fu1,fu =   3.2400E+06 -3.5633E-02 -1.4435E-02 -1.9734E-02  7.500000000000000E-01  2.500000000000000E-01
 cg2d: Sum(rhs),rhsMax =   2.42336706257618E-12  9.21995710952668E+00
time,SST,SSS,fu,fv,Q,E-P,i0,i1,a,b =   3.2832E+06 -1.8412E-01  3.4490E+01 -1.9381E-02 -2.6880E-02  2.4638E+02  0.0000E+00     1     2  7.6667E-01  2.3333E-01
time,fu0,fu1,fu =   3.2832E+06 -3.5633E-02 -1.4435E-02 -1.9381E-02  7.666666666666667E-01  2.333333333333333E-01
 cg2d: Sum(rhs),rhsMax =   2.45249653918478E-12  9.43408848348899E+00
time,SST,SSS,fu,fv,Q,E-P,i0,i1,a,b =   3.3264E+06 -2.0896E-01  3.4485E+01 -1.9028E-02 -2.6220E-02  2.4596E+02  0.0000E+00     1     2  7.8333E-01  2.1667E-01
time,fu0,fu1,fu =   3.3264E+06 -3.5633E-02 -1.4435E-02 -1.9028E-02  7.833333333333333E-01  2.166666666666667E-01
 cg2d: Sum(rhs),rhsMax =   2.84317708265647E-12  9.54305627953707E+00
time,SST,SSS,fu,fv,Q,E-P,i0,i1,a,b =   3.3696E+06 -2.3380E-01  3.4480E+01 -1.8674E-02 -2.5560E-02  2.4554E+02  0.0000E+00     1     2  8.0000E-01  2.0000E-01
time,fu0,fu1,fu =   3.3696E+06 -3.5633E-02 -1.4435E-02 -1.8674E-02  8.000000000000000E-01  2.000000000000000E-01
 cg2d: Sum(rhs),rhsMax =   2.68157024363447E-12  9.54625938484141E+00
time,SST,SSS,fu,fv,Q,E-P,i0,i1,a,b =   3.4128E+06 -2.5864E-01  3.4475E+01 -1.8321E-02 -2.4899E-02  2.4512E+02  0.0000E+00     1     2  8.1667E-01  1.8333E-01
time,fu0,fu1,fu =   3.4128E+06 -3.5633E-02 -1.4435E-02 -1.8321E-02  8.166666666666667E-01  1.833333333333333E-01
 cg2d: Sum(rhs),rhsMax =   2.35866187692224E-12  9.44553335306459E+00
time,SST,SSS,fu,fv,Q,E-P,i0,i1,a,b =   3.4560E+06 -2.8348E-01  3.4470E+01 -1.7968E-02 -2.4239E-02  2.4470E+02  0.0000E+00     1     2  8.3333E-01  1.6667E-01
time,fu0,fu1,fu =   3.4560E+06 -3.5633E-02 -1.4435E-02 -1.7968E-02  8.333333333333334E-01  1.666666666666666E-01
 cg2d: Sum(rhs),rhsMax =   2.80005879593759E-12  9.24503729971009E+00
time,SST,SSS,fu,fv,Q,E-P,i0,i1,a,b =   3.4992E+06 -3.0831E-01  3.4465E+01 -1.7614E-02 -2.3579E-02  2.4427E+02  0.0000E+00     1     2  8.5000E-01  1.5000E-01
time,fu0,fu1,fu =   3.4992E+06 -3.5633E-02 -1.4435E-02 -1.7614E-02  8.500000000000000E-01  1.500000000000000E-01
 cg2d: Sum(rhs),rhsMax =   2.76383083086529E-12  8.95108946330625E+00
time,SST,SSS,fu,fv,Q,E-P,i0,i1,a,b =   3.5424E+06 -3.3315E-01  3.4460E+01 -1.7261E-02 -2.2918E-02  2.4385E+02  0.0000E+00     1     2  8.6667E-01  1.3333E-01
time,fu0,fu1,fu =   3.5424E+06 -3.5633E-02 -1.4435E-02 -1.7261E-02  8.666666666666667E-01  1.333333333333333E-01
 cg2d: Sum(rhs),rhsMax =   2.83920109644953E-12  8.57195972313464E+00
time,SST,SSS,fu,fv,Q,E-P,i0,i1,a,b =   3.5856E+06 -3.5799E-01  3.4455E+01 -1.6908E-02 -2.2258E-02  2.4343E+02  0.0000E+00     1     2  8.8333E-01  1.1667E-01
time,fu0,fu1,fu =   3.5856E+06 -3.5633E-02 -1.4435E-02 -1.6908E-02  8.833333333333333E-01  1.166666666666667E-01
 cg2d: Sum(rhs),rhsMax =   3.22360194093818E-12  8.11762753154395E+00
time,SST,SSS,fu,fv,Q,E-P,i0,i1,a,b =   3.6288E+06 -3.8283E-01  3.4450E+01 -1.6555E-02 -2.1598E-02  2.4301E+02  0.0000E+00     1     2  9.0000E-01  1.0000E-01
time,fu0,fu1,fu =   3.6288E+06 -3.5633E-02 -1.4435E-02 -1.6555E-02  9.000000000000000E-01  9.999999999999998E-02
 cg2d: Sum(rhs),rhsMax =   4.52229920178127E-12  8.02199623444861E+00
time,SST,SSS,fu,fv,Q,E-P,i0,i1,a,b =   3.6720E+06 -4.0767E-01  3.4446E+01 -1.6201E-02 -2.0937E-02  2.4259E+02  0.0000E+00     1     2  9.1667E-01  8.3333E-02
time,fu0,fu1,fu =   3.6720E+06 -3.5633E-02 -1.4435E-02 -1.6201E-02  9.166666666666666E-01  8.333333333333337E-02
 cg2d: Sum(rhs),rhsMax =   4.23215629208329E-12  7.98965231734582E+00
time,SST,SSS,fu,fv,Q,E-P,i0,i1,a,b =   3.7152E+06 -4.3250E-01  3.4441E+01 -1.5848E-02 -2.0277E-02  2.4217E+02  0.0000E+00     1     2  9.3333E-01  6.6667E-02
time,fu0,fu1,fu =   3.7152E+06 -3.5633E-02 -1.4435E-02 -1.5848E-02  9.333333333333333E-01  6.666666666666665E-02
 cg2d: Sum(rhs),rhsMax =   4.31198132755384E-12  7.95826435852234E+00
time,SST,SSS,fu,fv,Q,E-P,i0,i1,a,b =   3.7584E+06 -4.5734E-01  3.4436E+01 -1.5495E-02 -1.9617E-02  2.4175E+02  0.0000E+00     1     2  9.5000E-01  5.0000E-02
time,fu0,fu1,fu =   3.7584E+06 -3.5633E-02 -1.4435E-02 -1.5495E-02  9.500000000000000E-01  5.000000000000004E-02
 cg2d: Sum(rhs),rhsMax =   4.54603021893263E-12  7.92999027071858E+00
time,SST,SSS,fu,fv,Q,E-P,i0,i1,a,b =   3.8016E+06 -4.8218E-01  3.4431E+01 -1.5141E-02 -1.8956E-02  2.4132E+02  0.0000E+00     1     2  9.6667E-01  3.3333E-02
time,fu0,fu1,fu =   3.8016E+06 -3.5633E-02 -1.4435E-02 -1.5141E-02  9.666666666666667E-01  3.333333333333333E-02
 cg2d: Sum(rhs),rhsMax =   4.21597479149938E-12  7.90697491218471E+00
time,SST,SSS,fu,fv,Q,E-P,i0,i1,a,b =   3.8448E+06 -5.0702E-01  3.4426E+01 -1.4788E-02 -1.8296E-02  2.4090E+02  0.0000E+00     1     2  9.8333E-01  1.6667E-02
time,fu0,fu1,fu =   3.8448E+06 -3.5633E-02 -1.4435E-02 -1.4788E-02  9.833333333333333E-01  1.666666666666672E-02
 cg2d: Sum(rhs),rhsMax =   5.02285713022133E-12  7.89125118750031E+00
S/R EXTERNAL_FIELDS_LOAD: Reading new data:    2    3        90  3.888000000000E+06
(PID.TID 0000.0001)  MDSREADFIELD: opening global file: trenberth_taux.bin
(PID.TID 0000.0001)  MDSREADFIELD: opening global file: trenberth_taux.bin
(PID.TID 0000.0001)  MDSREADFIELD: opening global file: trenberth_tauy.bin
(PID.TID 0000.0001)  MDSREADFIELD: opening global file: trenberth_tauy.bin
(PID.TID 0000.0001)  MDSREADFIELD: opening global file: ncep_qnet.bin
(PID.TID 0000.0001)  MDSREADFIELD: opening global file: ncep_qnet.bin
(PID.TID 0000.0001)  MDSREADFIELD: opening global file: lev_sst.bin
(PID.TID 0000.0001)  MDSREADFIELD: opening global file: lev_sst.bin
(PID.TID 0000.0001)  MDSREADFIELD: opening global file: lev_sss.bin
(PID.TID 0000.0001)  MDSREADFIELD: opening global file: lev_sss.bin
time,SST,SSS,fu,fv,Q,E-P,i0,i1,a,b =   3.8880E+06 -5.3186E-01  3.4421E+01 -1.4435E-02 -1.7636E-02  2.4048E+02  0.0000E+00     2     3  0.0000E+00  1.0000E+00
time,fu0,fu1,fu =   3.8880E+06 -1.4435E-02 -2.7199E-02 -1.4435E-02  0.000000000000000E+00  1.000000000000000E+00
 cg2d: Sum(rhs),rhsMax =   4.27842483663454E-12  7.88464124063305E+00
time,SST,SSS,fu,fv,Q,E-P,i0,i1,a,b =   3.9312E+06 -5.2606E-01  3.4424E+01 -1.4647E-02 -1.7351E-02  2.4006E+02  0.0000E+00     2     3  1.6667E-02  9.8333E-01
time,fu0,fu1,fu =   3.9312E+06 -1.4435E-02 -2.7199E-02 -1.4647E-02  1.666666666666667E-02  9.833333333333333E-01
 cg2d: Sum(rhs),rhsMax =   3.92817722794092E-12  8.18557490432067E+00
time,SST,SSS,fu,fv,Q,E-P,i0,i1,a,b =   3.9744E+06 -5.2026E-01  3.4426E+01 -1.4860E-02 -1.7067E-02  2.3964E+02  0.0000E+00     2     3  3.3333E-02  9.6667E-01
time,fu0,fu1,fu =   3.9744E+06 -1.4435E-02 -2.7199E-02 -1.4860E-02  3.333333333333333E-02  9.666666666666667E-01
 cg2d: Sum(rhs),rhsMax =   4.21344903411836E-12  8.65937275246093E+00
time,SST,SSS,fu,fv,Q,E-P,i0,i1,a,b =   4.0176E+06 -5.1446E-01  3.4429E+01 -1.5073E-02 -1.6783E-02  2.3923E+02  0.0000E+00     2     3  5.0000E-02  9.5000E-01
time,fu0,fu1,fu =   4.0176E+06 -1.4435E-02 -2.7199E-02 -1.5073E-02  5.000000000000000E-02  9.500000000000000E-01
 cg2d: Sum(rhs),rhsMax =   3.98551330826891E-12  9.08149152290095E+00
time,SST,SSS,fu,fv,Q,E-P,i0,i1,a,b =   4.0608E+06 -5.0866E-01  3.4432E+01 -1.5286E-02 -1.6498E-02  2.3881E+02  0.0000E+00     2     3  6.6667E-02  9.3333E-01
time,fu0,fu1,fu =   4.0608E+06 -1.4435E-02 -2.7199E-02 -1.5286E-02  6.666666666666667E-02  9.333333333333333E-01
 cg2d: Sum(rhs),rhsMax =   3.54101470367851E-12  9.44424371681617E+00
time,SST,SSS,fu,fv,Q,E-P,i0,i1,a,b =   4.1040E+06 -5.0286E-01  3.4434E+01 -1.5498E-02 -1.6214E-02  2.3839E+02  0.0000E+00     2     3  8.3333E-02  9.1667E-01
time,fu0,fu1,fu =   4.1040E+06 -1.4435E-02 -2.7199E-02 -1.5498E-02  8.333333333333333E-02  9.166666666666666E-01
 cg2d: Sum(rhs),rhsMax =   3.09386544161683E-12  9.74175924730620E+00
time,SST,SSS,fu,fv,Q,E-P,i0,i1,a,b =   4.1472E+06 -4.9706E-01  3.4437E+01 -1.5711E-02 -1.5930E-02  2.3797E+02  0.0000E+00     2     3  1.0000E-01  9.0000E-01
time,fu0,fu1,fu =   4.1472E+06 -1.4435E-02 -2.7199E-02 -1.5711E-02  1.000000000000000E-01  9.000000000000000E-01
 cg2d: Sum(rhs),rhsMax =   2.83995049699115E-12  9.97004082339821E+00
time,SST,SSS,fu,fv,Q,E-P,i0,i1,a,b =   4.1904E+06 -4.9126E-01  3.4440E+01 -1.5924E-02 -1.5646E-02  2.3755E+02  0.0000E+00     2     3  1.1667E-01  8.8333E-01
time,fu0,fu1,fu =   4.1904E+06 -1.4435E-02 -2.7199E-02 -1.5924E-02  1.166666666666667E-01  8.833333333333333E-01
 cg2d: Sum(rhs),rhsMax =   3.56985274674315E-12  1.01269752668598E+01
time,SST,SSS,fu,fv,Q,E-P,i0,i1,a,b =   4.2336E+06 -4.8546E-01  3.4442E+01 -1.6137E-02 -1.5361E-02  2.3714E+02  0.0000E+00     2     3  1.3333E-01  8.6667E-01
time,fu0,fu1,fu =   4.2336E+06 -1.4435E-02 -2.7199E-02 -1.6137E-02  1.333333333333333E-01  8.666666666666667E-01
 cg2d: Sum(rhs),rhsMax =   2.55724608155816E-12  1.02123016653092E+01
time,SST,SSS,fu,fv,Q,E-P,i0,i1,a,b =   4.2768E+06 -4.7966E-01  3.4445E+01 -1.6349E-02 -1.5077E-02  2.3672E+02  0.0000E+00     2     3  1.5000E-01  8.5000E-01
time,fu0,fu1,fu =   4.2768E+06 -1.4435E-02 -2.7199E-02 -1.6349E-02  1.500000000000000E-01  8.500000000000000E-01
 cg2d: Sum(rhs),rhsMax =   2.86131535132128E-12  1.02275379812657E+01
time,SST,SSS,fu,fv,Q,E-P,i0,i1,a,b =   4.3200E+06 -4.7386E-01  3.4447E+01 -1.6562E-02 -1.4793E-02  2.3630E+02  0.0000E+00     2     3  1.6667E-01  8.3333E-01
time,fu0,fu1,fu =   4.3200E+06 -1.4435E-02 -2.7199E-02 -1.6562E-02  1.666666666666667E-01  8.333333333333334E-01
 cg2d: Sum(rhs),rhsMax =   2.66409810878443E-12  1.01758685031678E+01
time,SST,SSS,fu,fv,Q,E-P,i0,i1,a,b =   4.3632E+06 -4.6807E-01  3.4450E+01 -1.6775E-02 -1.4508E-02  2.3588E+02  0.0000E+00     2     3  1.8333E-01  8.1667E-01
time,fu0,fu1,fu =   4.3632E+06 -1.4435E-02 -2.7199E-02 -1.6775E-02  1.833333333333333E-01  8.166666666666667E-01
 cg2d: Sum(rhs),rhsMax =   2.69679417685964E-12  1.00619953070919E+01
time,SST,SSS,fu,fv,Q,E-P,i0,i1,a,b =   4.4064E+06 -4.6227E-01  3.4453E+01 -1.6988E-02 -1.4224E-02  2.3546E+02  0.0000E+00     2     3  2.0000E-01  8.0000E-01
time,fu0,fu1,fu =   4.4064E+06 -1.4435E-02 -2.7199E-02 -1.6988E-02  2.000000000000000E-01  8.000000000000000E-01
 cg2d: Sum(rhs),rhsMax =   2.50276882551859E-12  9.89195767401348E+00
time,SST,SSS,fu,fv,Q,E-P,i0,i1,a,b =   4.4496E+06 -4.5647E-01  3.4455E+01 -1.7200E-02 -1.3940E-02  2.3505E+02  0.0000E+00     2     3  2.1667E-01  7.8333E-01
time,fu0,fu1,fu =   4.4496E+06 -1.4435E-02 -2.7199E-02 -1.7200E-02  2.166666666666667E-01  7.833333333333333E-01
 cg2d: Sum(rhs),rhsMax =   2.24768814671705E-12  9.67292415442821E+00
time,SST,SSS,fu,fv,Q,E-P,i0,i1,a,b =   4.4928E+06 -4.5067E-01  3.4458E+01 -1.7413E-02 -1.3655E-02  2.3463E+02  0.0000E+00     2     3  2.3333E-01  7.6667E-01
time,fu0,fu1,fu =   4.4928E+06 -1.4435E-02 -2.7199E-02 -1.7413E-02  2.333333333333333E-01  7.666666666666666E-01
 cg2d: Sum(rhs),rhsMax =   2.69437250288718E-12  9.41296266298265E+00
time,SST,SSS,fu,fv,Q,E-P,i0,i1,a,b =   4.5360E+06 -4.4487E-01  3.4461E+01 -1.7626E-02 -1.3371E-02  2.3421E+02  0.0000E+00     2     3  2.5000E-01  7.5000E-01
time,fu0,fu1,fu =   4.5360E+06 -1.4435E-02 -2.7199E-02 -1.7626E-02  2.500000000000000E-01  7.500000000000000E-01
 cg2d: Sum(rhs),rhsMax =   2.57849297469193E-12  9.12079458669747E+00
time,SST,SSS,fu,fv,Q,E-P,i0,i1,a,b =   4.5792E+06 -4.3907E-01  3.4463E+01 -1.7838E-02 -1.3087E-02  2.3379E+02  0.0000E+00     2     3  2.6667E-01  7.3333E-01
time,fu0,fu1,fu =   4.5792E+06 -1.4435E-02 -2.7199E-02 -1.7838E-02  2.666666666666667E-01  7.333333333333334E-01
 cg2d: Sum(rhs),rhsMax =   2.56408783094741E-12  8.86256530307648E+00
time,SST,SSS,fu,fv,Q,E-P,i0,i1,a,b =   4.6224E+06 -4.3327E-01  3.4466E+01 -1.8051E-02 -1.2803E-02  2.3337E+02  0.0000E+00     2     3  2.8333E-01  7.1667E-01
time,fu0,fu1,fu =   4.6224E+06 -1.4435E-02 -2.7199E-02 -1.8051E-02  2.833333333333333E-01  7.166666666666667E-01
 cg2d: Sum(rhs),rhsMax =   3.16915244047422E-12  8.89641365610583E+00
time,SST,SSS,fu,fv,Q,E-P,i0,i1,a,b =   4.6656E+06 -4.2747E-01  3.4469E+01 -1.8264E-02 -1.2518E-02  2.3296E+02  0.0000E+00     2     3  3.0000E-01  7.0000E-01
time,fu0,fu1,fu =   4.6656E+06 -1.4435E-02 -2.7199E-02 -1.8264E-02  3.000000000000000E-01  7.000000000000000E-01
 cg2d: Sum(rhs),rhsMax =   2.43995795790042E-12  8.91497204910884E+00
time,SST,SSS,fu,fv,Q,E-P,i0,i1,a,b =   4.7088E+06 -4.2167E-01  3.4471E+01 -1.8477E-02 -1.2234E-02  2.3254E+02  0.0000E+00     2     3  3.1667E-01  6.8333E-01
time,fu0,fu1,fu =   4.7088E+06 -1.4435E-02 -2.7199E-02 -1.8477E-02  3.166666666666667E-01  6.833333333333333E-01
 cg2d: Sum(rhs),rhsMax =   2.24278234872699E-12  8.91793953034709E+00
time,SST,SSS,fu,fv,Q,E-P,i0,i1,a,b =   4.7520E+06 -4.1587E-01  3.4474E+01 -1.8689E-02 -1.1950E-02  2.3212E+02  0.0000E+00     2     3  3.3333E-01  6.6667E-01
time,fu0,fu1,fu =   4.7520E+06 -1.4435E-02 -2.7199E-02 -1.8689E-02  3.333333333333333E-01  6.666666666666667E-01
 cg2d: Sum(rhs),rhsMax =   2.67841998580209E-12  8.90561082396095E+00
time,SST,SSS,fu,fv,Q,E-P,i0,i1,a,b =   4.7952E+06 -4.1007E-01  3.4476E+01 -1.8902E-02 -1.1665E-02  2.3170E+02  0.0000E+00     2     3  3.5000E-01  6.5000E-01
time,fu0,fu1,fu =   4.7952E+06 -1.4435E-02 -2.7199E-02 -1.8902E-02  3.500000000000000E-01  6.500000000000000E-01
 cg2d: Sum(rhs),rhsMax =   2.25199026093748E-12  8.87885341253076E+00
time,SST,SSS,fu,fv,Q,E-P,i0,i1,a,b =   4.8384E+06 -4.0427E-01  3.4479E+01 -1.9115E-02 -1.1381E-02  2.3128E+02  0.0000E+00     2     3  3.6667E-01  6.3333E-01
time,fu0,fu1,fu =   4.8384E+06 -1.4435E-02 -2.7199E-02 -1.9115E-02  3.666666666666666E-01  6.333333333333333E-01
 cg2d: Sum(rhs),rhsMax =   2.32847074954634E-12  8.83905906881253E+00
time,SST,SSS,fu,fv,Q,E-P,i0,i1,a,b =   4.8816E+06 -3.9848E-01  3.4482E+01 -1.9328E-02 -1.1097E-02  2.3087E+02  0.0000E+00     2     3  3.8333E-01  6.1667E-01
time,fu0,fu1,fu =   4.8816E+06 -1.4435E-02 -2.7199E-02 -1.9328E-02  3.833333333333334E-01  6.166666666666667E-01
 cg2d: Sum(rhs),rhsMax =   2.49400500251795E-12  8.78807261219078E+00
time,SST,SSS,fu,fv,Q,E-P,i0,i1,a,b =   4.9248E+06 -3.9268E-01  3.4484E+01 -1.9540E-02 -1.0813E-02  2.3045E+02  0.0000E+00     2     3  4.0000E-01  6.0000E-01
time,fu0,fu1,fu =   4.9248E+06 -1.4435E-02 -2.7199E-02 -1.9540E-02  4.000000000000000E-01  6.000000000000000E-01
 cg2d: Sum(rhs),rhsMax =   2.24123497538642E-12  8.72810182645582E+00
time,SST,SSS,fu,fv,Q,E-P,i0,i1,a,b =   4.9680E+06 -3.8688E-01  3.4487E+01 -1.9753E-02 -1.0528E-02  2.3003E+02  0.0000E+00     2     3  4.1667E-01  5.8333E-01
time,fu0,fu1,fu =   4.9680E+06 -1.4435E-02 -2.7199E-02 -1.9753E-02  4.166666666666667E-01  5.833333333333333E-01
 cg2d: Sum(rhs),rhsMax =   1.85271242791885E-12  8.66161353067292E+00
time,SST,SSS,fu,fv,Q,E-P,i0,i1,a,b =   5.0112E+06 -3.8108E-01  3.4490E+01 -1.9966E-02 -1.0244E-02  2.2961E+02  0.0000E+00     2     3  4.3333E-01  5.6667E-01
time,fu0,fu1,fu =   5.0112E+06 -1.4435E-02 -2.7199E-02 -1.9966E-02  4.333333333333333E-01  5.666666666666667E-01
 cg2d: Sum(rhs),rhsMax =   2.72985800631176E-12  8.59122144868936E+00
time,SST,SSS,fu,fv,Q,E-P,i0,i1,a,b =   5.0544E+06 -3.7528E-01  3.4492E+01 -2.0179E-02 -9.9597E-03  2.2919E+02  0.0000E+00     2     3  4.5000E-01  5.5000E-01
time,fu0,fu1,fu =   5.0544E+06 -1.4435E-02 -2.7199E-02 -2.0179E-02  4.500000000000000E-01  5.500000000000000E-01
 cg2d: Sum(rhs),rhsMax =   2.51096365921910E-12  8.77527674681796E+00
time,SST,SSS,fu,fv,Q,E-P,i0,i1,a,b =   5.0976E+06 -3.6948E-01  3.4495E+01 -2.0391E-02 -9.6754E-03  2.2877E+02  0.0000E+00     2     3  4.6667E-01  5.3333E-01
time,fu0,fu1,fu =   5.0976E+06 -1.4435E-02 -2.7199E-02 -2.0391E-02  4.666666666666667E-01  5.333333333333333E-01
 cg2d: Sum(rhs),rhsMax =   1.61690105748846E-12  9.00166222387621E+00
time,SST,SSS,fu,fv,Q,E-P,i0,i1,a,b =   5.1408E+06 -3.6368E-01  3.4497E+01 -2.0604E-02 -9.3911E-03  2.2836E+02  0.0000E+00     2     3  4.8333E-01  5.1667E-01
time,fu0,fu1,fu =   5.1408E+06 -1.4435E-02 -2.7199E-02 -2.0604E-02  4.833333333333333E-01  5.166666666666666E-01
 cg2d: Sum(rhs),rhsMax =   1.53049795059701E-12  9.15305691520549E+00
 --> objf_test(bi,bj)   =  0.000000000000000E+00
 --> objf_tracer(bi,bj) =  0.000000000000000E+00
 --> objf_atl(bi,bj)    = -0.114865708652975E+00
  local fc = -0.114865708652975E+00
 global fc = -0.114865708652975E+00
 ph-check fcpertplus =  -0.114865709
(PID.TID 0000.0001)  MDSREADFIELD: opening file: xx_theta.0000000000.001.001.data
 ph-check fcpertminus =  -0.114865705
(PID.TID 0000.0001)  MDSREADFIELD: opening file: xx_theta.0000000000.001.001.data
(PID.TID 0000.0001)  MDSREADFIELD: opening global file: bathymetry.bin
(PID.TID 0000.0001) // =======================================================
(PID.TID 0000.0001) // Field Model R_low (ini_masks_etc) at iteration          1
(PID.TID 0000.0001) // CMIN =         -5.200000000000000E+03
(PID.TID 0000.0001) // CMAX =         -1.200000000000000E+02
(PID.TID 0000.0001) // CINT =          1.881481481481482E+02
(PID.TID 0000.0001) // SYMBOLS (CMIN->CMAX): -abcdefghijklmnopqrstuvwxyz+
(PID.TID 0000.0001) //                  0.0: .
(PID.TID 0000.0001) // RANGE I (Lo:Hi:Step):(  -2:  93:   1)
(PID.TID 0000.0001) // RANGE J (Lo:Hi:Step):(  43:  -2:  -1)
(PID.TID 0000.0001) // RANGE K (Lo:Hi:Step):(   1:   1:   1)
(PID.TID 0000.0001) // =======================================================
(PID.TID 0000.0001) K =   1
(PID.TID 0000.0001) //                I=7       I=17      I=27      I=37      I=47      I=57      I=67      I=77      I=87
(PID.TID 0000.0001) // |--J--|210123456|890123456|890123456|890123456|890123456|890123456|890123456|890123456|890123456|890123
(PID.TID 0000.0001) //     43 ................................................................................................
(PID.TID 0000.0001) //     42 .............................................zyxxmgfeeefefgimnpwwwy..+zyy.....yyyyoiiihhz+......
(PID.TID 0000.0001) //     41 ................................................................................................
(PID.TID 0000.0001) //     40 +qlloqz+.++++zzz++++++..................................................................+++qlloq
(PID.TID 0000.0001) //     39 uslloorzzzzzzzzz+...++.....................................................yxxz........+zvuslloo
(PID.TID 0000.0001) //     38 smqpporzzzzzz+++...........................................................zxxy+......zyyvsmqppo
(PID.TID 0000.0001) //     37 smmmuz..................................................................++...zy+...yttyy.+smmmuz
(PID.TID 0000.0001) //     36 yutt+.........................................mm++....................+++++++znmm.yoowssvuyutt+.
(PID.TID 0000.0001) //     35 w++++.................................+zzz..rrmmkk+...+gghn...........+++....+nmiijlsoopuww++++.
(PID.TID 0000.0001) //     34 +.....................................+vvy.ggqyxv+y.ccdffhim..................+nihhikkihhm+.....
(PID.TID 0000.0001) //     33 w+.....................................uuz---h------aaabdefin+.................zqvddflifffw+....
(PID.TID 0000.0001) //     32 m+.....................................+t----h---------acdfgnn................+++gdffkofffm+....
(PID.TID 0000.0001) //     31 m......................................-----ad--------abddegil..............qbaafccdhqqgddm.....
(PID.TID 0000.0001) //     30 i.....................................f----b--b------------abd............zfbb--fbcdosjfddi.....
(PID.TID 0000.0001) //     29 i...................................tu----e---fjg----------abdf...........eaac--abfmijaadgi.....
(PID.TID 0000.0001) //     28 z.................................+xfl-------------------bdedefi.........qbaa---aemfbbaaejz.....
(PID.TID 0000.0001) //     27 .................xx..............+wfgfpf--------eallc---bbbccefgi...+++x.qb-----akfa---ah.......
(PID.TID 0000.0001) //     26 .................xnn...........+vd---dna------a--aicfna---aabdfghku.++xssuy-----bgca---ci.......
(PID.TID 0000.0001) //     25 .................iiik...oo+...+ivd---doaa-bc--ilglf--aa---aabcghhkll...ssum+xaaacjbaabdjk.......
(PID.TID 0000.0001) //     24 ...............xnheeft.kkk+...uii.aagdm----aa-----a-------bbbcdefjljjju.zummwwbbchba--abi.......
(PID.TID 0000.0001) //     23 ...............xgheefp.iikw...uuw..fihi----fed-----eaaa--bbbbcdfflkjiiiq....zykccefa--abd.......
(PID.TID 0000.0001) //     22 quss...........bbelffslffkk...zz.wqkeeqoheccdfa-----egabaabcdddegghliiiqq......xeeehheehccquss..
(PID.TID 0000.0001) //     21 cbbeir........nbbcdjhqdddiiz.....wqfeelgghmedea-----bibbcddddddefghklnqoo........ieeflhgcccbbeir
(PID.TID 0000.0001) //     20 cbbder.......ldcccdgkccccidd......z.vkkktqqhegg----aaacddddddddefghkiiijl.........nhfa--gfcbbder
(PID.TID 0000.0001) //     19 hcdaaf.......kddosggpaaaibbccx...+z+.....r+nlec---agaaabcddccddefikfgffff...........d---cjhcdaaf
(PID.TID 0000.0001) //     18 hd---d.......kglggvliaaaibbcaaeaiv++...qqzolhecccfdgkaabcdfccdeeikgfgffdd+..........d---djhd---d
(PID.TID 0000.0001) //     17 hc---c.......l.feewlfaaaoaa----aiv.....qqnllslmlofcdbaacceffffhhligfigeddj.........hd---ckhc---c
(PID.TID 0000.0001) //     16 gba--c......tn.ddgnlfdaaqa-----lv.......vnllvllnwv--accivomfffhilhgfffeddjf........re--aeigba--c
(PID.TID 0000.0001) //     15 fb--dpz....+ll.ccdfhmdddlc----av.........otsxoomv---abccddfihgijkhgfffeejfff......+fd---ckfb--dp
(PID.TID 0000.0001) //     14 fc--mcl....weeqbaafilkfend--eagy.........hhstofft----aacdheefijkmjhhjijiffff.....zlfdaaadlfc--mc
(PID.TID 0000.0001) //     13 hcclbbg....nccobaaiddgkffqrqeaal.........eeutqfft------aaceeffhijlkjhhigfffq....+jgfodccflhcclbb
(PID.TID 0000.0001) //     12 hhgaaacw+iiicclemhdddfliigfdcaabfaaaz....ccsurqpc--------abcifffikiiihhggff.....kbbbdfffglhhgaaa
(PID.TID 0000.0001) //     11 kgcaaacbbifccennhbbdefnihgfdccaaaa----..dcccnt.ncab-------aabcdfilhggjiggff....l---abcefjlkgcaaa
(PID.TID 0000.0001) //     10 kfcaaccbdaacfrllfbbdegkmmljhfdddba----d.dcccfx.nyrebaba----abcdgilhfeegijgi..+w--aa-abcfilkfcaac
(PID.TID 0000.0001) //      9 lffcdcccaaaoqsolfdeehikihhlllgfedcccccdmdcccf.vyfaaaaaaaa--abdehmjhfeeefglv.++w-----abcdfklffcdc
(PID.TID 0000.0001) //      8 liffjklcaafddffeeccvznkfffhhhlkjifgjkkfeeddfsyvcaaaaaaccdcccdfgjligedbbceg+.++xffn--cfddefliffjk
(PID.TID 0000.0001) //      7 hmqnnbbkkf--bmbaabbgtykfddeffeeddccdfhlffeelfbaaaaaacddeghgjgjlligeddaaabedfiiiiiisvkfkecchmqnnb
(PID.TID 0000.0001) //      6 cca-------------aabcelttdddedddddccccdfkkiiffbaaaabcdgimmkmefecaaabbbaaabbdfiiiiispmmregifcca---
(PID.TID 0000.0001) //      5 --------a-------aaccehhhiddeddddddcccdfiikomodddefffmlmigedccaaaaaaaababbbdfiijsqgeccccbaa------
(PID.TID 0000.0001) //      4 --ahebaabbbbbeihffgijiiiijpywnnpokkomkiiijmmmolkommmgffeeedccaaaaaabbcccefhmz..yjgeccccbaa--aheb
(PID.TID 0000.0001) //      3 gffhhrpjiiwyy............................yxotmjjjjgfeeeeeeddeffffheddeghjkyy..yqjgeddccdbbgffhhr
(PID.TID 0000.0001) //      2 .............................................zyxxmgfeeefefgimnpwwwy..+zyy.....yyyyoiiihhz+......
(PID.TID 0000.0001) //      1 ................................................................................................
(PID.TID 0000.0001) //      0 +qlloqz+.++++zzz++++++..................................................................+++qlloq
(PID.TID 0000.0001) //     -1 uslloorzzzzzzzzz+...++.....................................................yxxz........+zvuslloo
(PID.TID 0000.0001) //     -2 ................................................................................................
(PID.TID 0000.0001) // =======================================================
(PID.TID 0000.0001) // END OF FIELD                                          =
(PID.TID 0000.0001) // =======================================================
(PID.TID 0000.0001) 
(PID.TID 0000.0001) // =======================================================
(PID.TID 0000.0001) // Field Model Ro_surf (ini_masks_etc) at iteration          1
(PID.TID 0000.0001) // CMIN =          1.000000000000000E+32
(PID.TID 0000.0001) // CMAX =         -1.000000000000000E+32
(PID.TID 0000.0001) // CINT =          0.000000000000000E+00
(PID.TID 0000.0001) // SYMBOLS (CMIN->CMAX): -abcdefghijklmnopqrstuvwxyz+
(PID.TID 0000.0001) //                  0.0: .
(PID.TID 0000.0001) // RANGE I (Lo:Hi:Step):(  -2:  93:   1)
(PID.TID 0000.0001) // RANGE J (Lo:Hi:Step):(  43:  -2:  -1)
(PID.TID 0000.0001) // RANGE K (Lo:Hi:Step):(   1:   1:   1)
(PID.TID 0000.0001) // =======================================================
(PID.TID 0000.0001) // =======================================================
(PID.TID 0000.0001) // END OF FIELD                                          =
(PID.TID 0000.0001) // =======================================================
(PID.TID 0000.0001) 
(PID.TID 0000.0001) // =======================================================
(PID.TID 0000.0001) // Field hFacC at iteration          1
(PID.TID 0000.0001) // CMIN =          1.000000000000000E+00
(PID.TID 0000.0001) // CMAX =          1.000000000000000E+00
(PID.TID 0000.0001) // CINT =          0.000000000000000E+00
(PID.TID 0000.0001) // SYMBOLS (CMIN->CMAX): -abcdefghijklmnopqrstuvwxyz+
(PID.TID 0000.0001) //                  0.0: .
(PID.TID 0000.0001) // RANGE I (Lo:Hi:Step):(  -2:  93:   1)
(PID.TID 0000.0001) // RANGE J (Lo:Hi:Step):(  43:  -2:  -1)
(PID.TID 0000.0001) // RANGE K (Lo:Hi:Step):(   1:   1:   1)
(PID.TID 0000.0001) // =======================================================
(PID.TID 0000.0001) // =======================================================
(PID.TID 0000.0001) // END OF FIELD                                          =
(PID.TID 0000.0001) // =======================================================
(PID.TID 0000.0001) 
(PID.TID 0000.0001) // =======================================================
(PID.TID 0000.0001) // Field hFacW at iteration          1
(PID.TID 0000.0001) // CMIN =          1.000000000000000E+00
(PID.TID 0000.0001) // CMAX =          1.000000000000000E+00
(PID.TID 0000.0001) // CINT =          0.000000000000000E+00
(PID.TID 0000.0001) // SYMBOLS (CMIN->CMAX): -abcdefghijklmnopqrstuvwxyz+
(PID.TID 0000.0001) //                  0.0: .
(PID.TID 0000.0001) // RANGE I (Lo:Hi:Step):(  -2:  93:   1)
(PID.TID 0000.0001) // RANGE J (Lo:Hi:Step):(  43:  -2:  -1)
(PID.TID 0000.0001) // RANGE K (Lo:Hi:Step):(   1:   1:   1)
(PID.TID 0000.0001) // =======================================================
(PID.TID 0000.0001) // =======================================================
(PID.TID 0000.0001) // END OF FIELD                                          =
(PID.TID 0000.0001) // =======================================================
(PID.TID 0000.0001) 
(PID.TID 0000.0001) // =======================================================
(PID.TID 0000.0001) // Field hFacS at iteration          1
(PID.TID 0000.0001) // CMIN =          1.000000000000000E+00
(PID.TID 0000.0001) // CMAX =          1.000000000000000E+00
(PID.TID 0000.0001) // CINT =          0.000000000000000E+00
(PID.TID 0000.0001) // SYMBOLS (CMIN->CMAX): -abcdefghijklmnopqrstuvwxyz+
(PID.TID 0000.0001) //                  0.0: .
(PID.TID 0000.0001) // RANGE I (Lo:Hi:Step):(  -2:  93:   1)
(PID.TID 0000.0001) // RANGE J (Lo:Hi:Step):(  43:  -2:  -1)
(PID.TID 0000.0001) // RANGE K (Lo:Hi:Step):(   1:   1:   1)
(PID.TID 0000.0001) // =======================================================
(PID.TID 0000.0001) // =======================================================
(PID.TID 0000.0001) // END OF FIELD                                          =
(PID.TID 0000.0001) // =======================================================
(PID.TID 0000.0001) 
(PID.TID 0000.0001) %MON ad_advcflfCori_max           =   1.4226580169407E-04
(PID.TID 0000.0001) %MON ad_advcflfCori_min           =  -1.4226580169407E-04
(PID.TID 0000.0001) %MON ad_advcflfCori_mean          =   7.5291817533716E-23
(PID.TID 0000.0001) %MON ad_advcflfCori_sd            =   9.6335367303778E-05
(PID.TID 0000.0001) %MON ad_advcflfCoriG_max          =   1.4112379284621E-04
(PID.TID 0000.0001) %MON ad_advcflfCoriG_min          =  -1.4323448157692E-04
(PID.TID 0000.0001) %MON ad_advcflfCoriG_mean         =  -3.6726790147928E-06
(PID.TID 0000.0001) %MON ad_advcflfCoriG_sd           =   9.7510077443652E-05
(PID.TID 0000.0001) %MON ad_advcflfCoriCos_max        =   1.4535550371427E-04
(PID.TID 0000.0001) %MON ad_advcflfCoriCos_min        =   3.0239529651320E-05
(PID.TID 0000.0001) %MON ad_advcflfCoriCos_mean       =   1.0260497651149E-04
(PID.TID 0000.0001) %MON ad_advcflfCoriCos_sd         =   3.6683828681187E-05
(PID.TID 0000.0001) INI_CG2D: CG2D normalisation factor =  6.5682677425711703E-05
(PID.TID 0000.0001) 
(PID.TID 0000.0001)  MDSREADFIELD: opening global file: lev_t.bin
(PID.TID 0000.0001) // =======================================================
(PID.TID 0000.0001) // Field Initial Temperature at iteration          1
(PID.TID 0000.0001) // CMIN =         -1.900000000000000E+00
(PID.TID 0000.0001) // CMAX =          2.973338890075684E+01
(PID.TID 0000.0001) // CINT =          1.171606996324327E+00
(PID.TID 0000.0001) // SYMBOLS (CMIN->CMAX): -abcdefghijklmnopqrstuvwxyz+
(PID.TID 0000.0001) //                  0.0: .
(PID.TID 0000.0001) // RANGE I (Lo:Hi:Step):(   1:  90:   1)
(PID.TID 0000.0001) // RANGE J (Lo:Hi:Step):(  40:   1:  -1)
(PID.TID 0000.0001) // RANGE K (Lo:Hi:Step):(   1:   1:   1)
(PID.TID 0000.0001) // =======================================================
(PID.TID 0000.0001) K =   1
(PID.TID 0000.0001)                I=10      I=20      I=30      I=40      I=50      I=60      I=70      I=80      I=90
(PID.TID 0000.0001) |--J--|123456789|123456789|123456789|123456789|123456789|123456789|123456789|123456789|123456789|
(PID.TID 0000.0001)     40 bccdd.baa----abdedd..................................................................bbbbb
(PID.TID 0000.0001)     39 ccdddddccbbbaa...ed.....................................................----........bbbbbb
(PID.TID 0000.0001)     38 fffgfedeedddc...........................................................-----......cbbbcde
(PID.TID 0000.0001)     37 ghh..................................................................bc...bbc...edeed.defg
(PID.TID 0000.0001)     36 hh.........................................ddcb....................dcccbabccdd.eefghhihhih
(PID.TID 0000.0001)     35 hh.................................aaab..dddeddd...ffggg...........ccc....ddeeeffghijjjjih
(PID.TID 0000.0001)     34 ...................................babb.deeeeeee.ffffgghh..................ccdffghijkkkj..
(PID.TID 0000.0001)     33 ....................................accdddeeeeefffffgghhiii.................bcfijkkllllkk.
(PID.TID 0000.0001)     32 ....................................bdddeffgffgghhhhhiiijjj................dccglmnmmmmlll.
(PID.TID 0000.0001)     31 ....................................fghiiiijjjjjjkkkkklllkk..............ikkjjmooooonnmm..
(PID.TID 0000.0001)     30 ...................................mmmnmmmmmmmmmmmmmnnnnnmm............moqrrrqrqqqpppooo..
(PID.TID 0000.0001)     29 .................................pqqqqqpppppppppoppoppppponm...........ssssssrrrrrqqqqpp..
(PID.TID 0000.0001)     28 ...............................prssssrrrsssrrrrrrrrrrrrrqqpoo.........uttssstssrssrrrqqq..
(PID.TID 0000.0001)     27 ..............vv..............stuttuuuuutuuuuuuuuuuttttssrrqqq...stuu.vvvuuuuutttttsss....
(PID.TID 0000.0001)     26 ..............vvv...........uuvvvvvwwwwwwwwvvvvvvvvvuuutttsssttv.uuvxxwwwwwwvvvvuuttsr....
(PID.TID 0000.0001)     25 ..............wwwx...xxx...vvvxxxxxyyxxxxxxxxxwwwwwvvvvvuuuuuvwwx...xxxxxxwwwwwwvvutsr....
(PID.TID 0000.0001)     24 ............wwwwxyy.xxyy...wxx.yyyyyyyyyyyxxxxxxxxwwwwwwwvvwwxxyywww.xxxxxxxxxxwwwvvur....
(PID.TID 0000.0001)     23 ............xxxyyyz.xyyy...xxx..yyyyzzyyyyyyyyxxxxxxxxxwwwwwxxxwwwwwx....vwxxxxwwwwwvu....
(PID.TID 0000.0001)     22 w...........xxyyyzyyyyyz...xx.yyzzzzzzzzzzzzzyyzyyyyyyxxwwxxxxwvvvwwxw......yyyyxxxxxxwxxw
(PID.TID 0000.0001)     21 xxx........xxxxyyzzzzzzz+.....zyzzzzzzz++zzzzyyyyyyyyxxwvvwwwwvvvvvvvu........yyyyyyyyyxxx
(PID.TID 0000.0001)     20 xww.......xyyyyxyyzzzzzz+......z.zzzzz+++zzzzzzyyyyyxxxxwvwxwvuuuuuuut.........yyyyxxxxwww
(PID.TID 0000.0001)     19 vvv.......yyyyxwwxyzyyzzzzz...zzz.....++++++z++z+zzzyyyyxxxxwwvvvvvvvu...........yyxxxwwww
(PID.TID 0000.0001)     18 uut.......zzyyywwxyzyyyyzzyzzzzzz...z+z++++zz+++++++zzzyyyyxxwwwvvvvvtt..........yyxxwvvwv
(PID.TID 0000.0001)     17 uus.......z.yyyyyyxyzzyyyyyyyzz.....yzzzzzzzzzzzzzzzzzzyyyyxxwwvuuvvuut.........yyyxxwttvu
(PID.TID 0000.0001)     16 utr......yy.zyyyyxxxxxxxwxxxxy.......yyyyyyyyyyyyyyyyyyyyyyyxxwvvvuuutts........xyyyxwvuuu
(PID.TID 0000.0001)     15 ttrr....xxx.xxxwxwwwwvwwvvvww.........xwxxxxxxxxxxxxxxxxxyyyxwwwvvuttssrr......wxxxxxwwvuu
(PID.TID 0000.0001)     14 ttsq....xyxwwxwvwwwvutuuuuuuu.........wwvwwwwvwvvwwwvwvvwwwwwwvvvuuutssrr.....vwwwwwwwvvvu
(PID.TID 0000.0001)     13 tttr....wwwvvvtttuuuutttssttt.........vvvuuuuuuutttttuuuuuvwwwuuuttttssrr....uvvvvvvvvvvut
(PID.TID 0000.0001)     12 sssssstttutssssrrrrrstrqqrrssqqrrq....uuttssssrrrrrrrrrrrstttssssrssrrqp.....uuuttssttssss
(PID.TID 0000.0001)     11 poprsssrqqqqqrqppooopqpoppppppppppp..sssrrr.rqpppqqqqppppqqqoppqqqqrqqpp....prsrqqqqqppppq
(PID.TID 0000.0001)     10 lllmoooonmnnmnnnnmmmmmmlmmlllmnnnnon.qqqppp.ppppppooooooooonmnnnonnooooo..nmoponnmnnnnnmll
(PID.TID 0000.0001)      9 ihhiiiihhhhhhiiihiiiiihhhiiiijjkkmnllnnnnn.mmmmnnnnmmmmnnmmlklllllklllll.mllmmllkjiijjihhi
(PID.TID 0000.0001)      8 eeeeeeeedefgggffeeffggffffggghiiiijjijklklkkkkkkkklllkkkkjjiiijkjjjjjjkj.kkjjiihggffffedde
(PID.TID 0000.0001)      7 cccccddeedddefeddddddddddefeefffffgggghiiiiiijjjihhgggghhhhhghhhhhhhiiiihiihhgfeddddddcccc
(PID.TID 0000.0001)      6 abbcccddcccccdddddccdddddddccddddddeeeeffggggghhgeddddddeeeeeeefggggghggggffeedccbbbbbbbba
(PID.TID 0000.0001)      5 bbbcccccccccccccccccccccbbccccdddddddcccddeeddeedcbbbbbbccccccdddeeeeeddddddccbbbbaaaaaaab
(PID.TID 0000.0001)      4 bbbbbbbaaabbbbbbbbbbbbaabbabbbbcbbbbbbbbbbbbbbbbbbbabbaaabbbbbbbbbbbbbbbbb..a--aaabbbaaabb
(PID.TID 0000.0001)      3 bbbbaaa-a-............................bbaaaaaaaaaaaaaaaaaaaaaaaaaaaaaaaab..aaaaaaaabbbaaaa
(PID.TID 0000.0001)      2 ..........................................baaaaaaaaaaaa-------aa..aaaa.....aaaaaaaaaaaa...
(PID.TID 0000.0001)      1 ..........................................................................................
(PID.TID 0000.0001) // =======================================================
(PID.TID 0000.0001) // END OF FIELD                                          =
(PID.TID 0000.0001) // =======================================================
(PID.TID 0000.0001) 
(PID.TID 0000.0001)  MDSREADFIELD: opening global file: lev_s.bin
(PID.TID 0000.0001) // =======================================================
(PID.TID 0000.0001) // Field Initial Salinity at iteration          1
(PID.TID 0000.0001) // CMIN =          2.975276947021484E+01
(PID.TID 0000.0001) // CMAX =          3.747562789916992E+01
(PID.TID 0000.0001) // CINT =          2.860317936650029E-01
(PID.TID 0000.0001) // SYMBOLS (CMIN->CMAX): -abcdefghijklmnopqrstuvwxyz+
(PID.TID 0000.0001) //                  0.0: .
(PID.TID 0000.0001) // RANGE I (Lo:Hi:Step):(   1:  90:   1)
(PID.TID 0000.0001) // RANGE J (Lo:Hi:Step):(  40:   1:  -1)
(PID.TID 0000.0001) // RANGE K (Lo:Hi:Step):(   1:   1:   1)
(PID.TID 0000.0001) // =======================================================
(PID.TID 0000.0001) K =   1
(PID.TID 0000.0001)                I=10      I=20      I=30      I=40      I=50      I=60      I=70      I=80      I=90
(PID.TID 0000.0001) |--J--|123456789|123456789|123456789|123456789|123456789|123456789|123456789|123456789|123456789|
(PID.TID 0000.0001)     40 qrrrr.oonnooopqtutt..................................................................mnnop
(PID.TID 0000.0001)     39 rssrrrrrrrqqpn...ut.....................................................mmmm........opqqqr
(PID.TID 0000.0001)     38 ssrrqqqqrrqpo...........................................................lkkll......onoqrrs
(PID.TID 0000.0001)     37 ssr..................................................................hg...lln...qppqr.rrrs
(PID.TID 0000.0001)     36 rr.........................................lkji....................feeegikmoop.pqrssssssss
(PID.TID 0000.0001)     35 rr.................................kkkk..lllllki...jijjj...........aa-....opqrrrrrrrssttss
(PID.TID 0000.0001)     34 ...................................jlll.kklllllk.ijkkkjih..................hlpqrqrrsstts..
(PID.TID 0000.0001)     33 ....................................iklkkkkkkkkkjkkjjjjjjii.................jmprrsstttttt.
(PID.TID 0000.0001)     32 ....................................iklllkllllllllkkkkkkkji................gilpstuuttuuut.
(PID.TID 0000.0001)     31 ....................................lmnonnnnoooonnmmmmllkjj..............loopqtvvvuuuuuu..
(PID.TID 0000.0001)     30 ...................................pppppppqqqqpppoooonnmlkk............ptvxwwvvwvvvvvvvu..
(PID.TID 0000.0001)     29 .................................pqqrqqqqqqrrrqqppqqqpponmll...........vxxxxxxwwwwwxwwxw..
(PID.TID 0000.0001)     28 ...............................prrrrrqqrrrrrsrrsrssssssrqonmm.........wxxxxxxxyyyyyyyyxx..
(PID.TID 0000.0001)     27 ..............xx..............prrrrrrrrrssssssstttssssssrqpoop...uwww.wwxxxyyy++zzzzyy....
(PID.TID 0000.0001)     26 ..............wxx...........ppqrrrrrrsssrrstsstttssrrrrrrrqppqqp.wwwvvwwwwwxyy+++zzyxw....
(PID.TID 0000.0001)     25 ..............wxxv...kkk...ooopqrrrrrssrrrrrrrssssqqpppppppppppoo...vvutuuvvwxyyyxxvvu....
(PID.TID 0000.0001)     24 ............uvvwwur.lmlk...nmm.pqqqqrrrrrqqqqrrqqrpppppooooonmmmnooo.uuuuuuttuvvvuvuut....
(PID.TID 0000.0001)     23 ............vvuvtqp.lmml...mln..ppppqpqppppppqpppppppppqppponnnnnoopm....xvuuuvvvvuuut....
(PID.TID 0000.0001)     22 r...........vuttsqqpnppn...mm.oppqqrrqqqqqqppppqqrrrqqqrrppppoopooomjj......uuvvvvvuttssrr
(PID.TID 0000.0001)     21 qmm........ttsssssssrsqon.....opqqqqqqqrrrrqqqssssssrrrrrrrrpqqqppomll........tvvvvuttssrr
(PID.TID 0000.0001)     20 sqq.......sttssrrsrrrrpol......p.qrqpqrrrrrrrstttttsssrrsssrqrrrrqqqpo.........wwwvvvuuutt
(PID.TID 0000.0001)     19 tsr.......ssssrrrrpppppnmmm...oqq.....qrqqsrrstttuuuttssttssrrssrrrrqq...........wwwvuvvvv
(PID.TID 0000.0001)     18 wut.......ssrrrrrqppppppppoooorrr...poqqqprrrttttuuutuuuuuutttttttutsss..........yyxwwxwxx
(PID.TID 0000.0001)     17 wwu.......s.rrrrrrqppppqqqqqqqr.....rrsrqrsssuusrtuuuvvvwwvvvuuuuutttss.........xyzyyyyxxx
(PID.TID 0000.0001)     16 vvt......ss.qrrssrqrqpqrrrrrrr.......ssrrstsstusrsuuuvwwwwxxwwvvvuttttsr........yz+zzzxwww
(PID.TID 0000.0001)     15 utss....stt.rrssstttsrrsrstsr.........ssstttssttsuuttuvvvvwxwwwwwuttsssrr......xyyyyxyyxwv
(PID.TID 0000.0001)     14 utts....sstrrssstuuuuuuuuuutt.........stttuutttttttuttttttuvvvvvvutsrqrrr.....vxxwwwwxwvwv
(PID.TID 0000.0001)     13 uuut....ttttttttuuuuuvtuuuuuu.........ttttuutttttttuutsssstttttstsqrqqppp....uwwwvuvvvutvv
(PID.TID 0000.0001)     12 ttttttttttttttttttttttssuuuuutuuut....tttttttttttsssssrrrrrrrqqqqqppppoo.....rvvuuttttttuu
(PID.TID 0000.0001)     11 rqsttttttttuuttttsssssrrstttttttsss..ttttts.tsssrrrrqqqqqppppoonnooooooo....oruttttsssrqrs
(PID.TID 0000.0001)     10 pppqrssrqqrqpqrssrrqqqqqqrrrrrrrrrrs.sssssr.rssrrqqpppppppooooonnnoooonn..moqrrrqqqqqqqqqq
(PID.TID 0000.0001)      9 oonooooooooonnnooooooooooppppppqqqqqrrrqrq.pppqqqqqppppppppppoooooooooll.lmoqqqqppooooopoo
(PID.TID 0000.0001)      8 nnnoonooooooonnnnnnnoooonoonoooppopqqqqqqqppopppqqqpppppppppppppppooopon.lnopppoooonnnnooo
(PID.TID 0000.0001)      7 ooooooooooopponnnooooooonnnnnonnooooooooopppppppoooooooooopppppppppoopqnnmnoooonnnonnnnnno
(PID.TID 0000.0001)      6 oooonnoonnnnooooooooooooonnnnnnnnnnnnnnnnoooopppooooooooooooooppppppppppoooooooonnnnnmnnnn
(PID.TID 0000.0001)      5 oooonnnnnnnnnnnnnnnnnoooooonnnnnnonnnnnnnnnoooooooooooonnnnnnooooooopoooonoooonnnnnnnooooo
(PID.TID 0000.0001)      4 oooonnnooonnnnnnnnnnnnnnoooooonnnooooonnnooooooooppponnnnmmmnnnnmnnoonnnnn..nnnooooooooooo
(PID.TID 0000.0001)      3 ooonnnnnnn............................nnoooooonnooooonnnnnnnoonnnnnnnnmmm..ooopooooooooooo
(PID.TID 0000.0001)      2 ..........................................pppooooonnnnnnoooppppo..nnnn.....qqqpppoooooo...
(PID.TID 0000.0001)      1 ..........................................................................................
(PID.TID 0000.0001) // =======================================================
(PID.TID 0000.0001) // END OF FIELD                                          =
(PID.TID 0000.0001) // =======================================================
(PID.TID 0000.0001) 
(PID.TID 0000.0001) Start initial hydrostatic pressure computation
(PID.TID 0000.0001) Pressure is predetermined for buoyancyRelation OCEANIC
(PID.TID 0000.0001) 
(PID.TID 0000.0001)  MDSREADFIELD: opening file: xx_theta.0000000000.001.001.data
(PID.TID 0000.0001)  MDSREADFIELD: opening file: xx_salt.0000000000.001.001.data
(PID.TID 0000.0001)  MDSREADFIELD: opening file: xx_diffkr.0000000000.001.001.data
(PID.TID 0000.0001)  MDSREADFIELD: opening global file: trenberth_taux.bin
(PID.TID 0000.0001)  MDSREADFIELD: opening global file: trenberth_tauy.bin
(PID.TID 0000.0001)  MDSREADFIELD: opening global file: ncep_qnet.bin
(PID.TID 0000.0001)  MDSREADFIELD: opening global file: lev_sst.bin
(PID.TID 0000.0001)  MDSREADFIELD: opening global file: lev_sss.bin
(PID.TID 0000.0001) // =======================================================
(PID.TID 0000.0001) // Model current state
(PID.TID 0000.0001) // =======================================================
(PID.TID 0000.0001) 
S/R EXTERNAL_FIELDS_LOAD: Reading new data:   12    1         0  0.000000000000E+00
(PID.TID 0000.0001)  MDSREADFIELD: opening global file: trenberth_taux.bin
(PID.TID 0000.0001)  MDSREADFIELD: opening global file: trenberth_taux.bin
(PID.TID 0000.0001)  MDSREADFIELD: opening global file: trenberth_tauy.bin
(PID.TID 0000.0001)  MDSREADFIELD: opening global file: trenberth_tauy.bin
(PID.TID 0000.0001)  MDSREADFIELD: opening global file: ncep_qnet.bin
(PID.TID 0000.0001)  MDSREADFIELD: opening global file: ncep_qnet.bin
(PID.TID 0000.0001)  MDSREADFIELD: opening global file: lev_sst.bin
(PID.TID 0000.0001)  MDSREADFIELD: opening global file: lev_sst.bin
(PID.TID 0000.0001)  MDSREADFIELD: opening global file: lev_sss.bin
(PID.TID 0000.0001)  MDSREADFIELD: opening global file: lev_sss.bin
time,SST,SSS,fu,fv,Q,E-P,i0,i1,a,b =   0.0000E+00  5.3151E-02  3.4364E+01 -4.0500E-02 -6.3753E-02  2.6510E+02  0.0000E+00    12     1  5.0000E-01  5.0000E-01
time,fu0,fu1,fu =   0.0000E+00 -4.5368E-02 -3.5633E-02 -4.0500E-02  5.000000000000000E-01  5.000000000000000E-01
(PID.TID 0000.0001)  MDSREADFIELD: opening file: xx_tauu.0000000000.001.001.data
(PID.TID 0000.0001)  MDSREADFIELD: opening file: xx_tauv.0000000000.001.001.data
(PID.TID 0000.0001)  MDSREADFIELD: opening file: xx_sflux.0000000000.001.001.data
(PID.TID 0000.0001)  MDSREADFIELD: opening file: xx_hflux.0000000000.001.001.data
 cg2d: Sum(rhs),rhsMax =  -5.41233724504764E-16  2.53364304519873E+00
time,SST,SSS,fu,fv,Q,E-P,i0,i1,a,b =   4.3200E+04  8.3327E-02  3.4375E+01 -4.0338E-02 -6.3536E-02  2.6512E+02  0.0000E+00    12     1  5.1667E-01  4.8333E-01
time,fu0,fu1,fu =   4.3200E+04 -4.5368E-02 -3.5633E-02 -4.0338E-02  5.166666666666667E-01  4.833333333333333E-01
 cg2d: Sum(rhs),rhsMax =   4.57828219779799E-14  5.05307478634997E+00
time,SST,SSS,fu,fv,Q,E-P,i0,i1,a,b =   8.6400E+04  1.1350E-01  3.4387E+01 -4.0176E-02 -6.3320E-02  2.6514E+02  0.0000E+00    12     1  5.3333E-01  4.6667E-01
time,fu0,fu1,fu =   8.6400E+04 -4.5368E-02 -3.5633E-02 -4.0176E-02  5.333333333333333E-01  4.666666666666667E-01
 cg2d: Sum(rhs),rhsMax =   9.12568631772359E-14  6.32564766002464E+00
time,SST,SSS,fu,fv,Q,E-P,i0,i1,a,b =   1.2960E+05  1.4368E-01  3.4399E+01 -4.0014E-02 -6.3103E-02  2.6516E+02  0.0000E+00    12     1  5.5000E-01  4.5000E-01
time,fu0,fu1,fu =   1.2960E+05 -4.5368E-02 -3.5633E-02 -4.0014E-02  5.500000000000000E-01  4.500000000000000E-01
 cg2d: Sum(rhs),rhsMax =   9.44452849260813E-14  6.76202107413721E+00
time,SST,SSS,fu,fv,Q,E-P,i0,i1,a,b =   1.7280E+05  1.7385E-01  3.4410E+01 -3.9851E-02 -6.2886E-02  2.6519E+02  0.0000E+00    12     1  5.6667E-01  4.3333E-01
time,fu0,fu1,fu =   1.7280E+05 -4.5368E-02 -3.5633E-02 -3.9851E-02  5.666666666666667E-01  4.333333333333333E-01
 cg2d: Sum(rhs),rhsMax =   2.40207159718508E-14  6.91128535917368E+00
time,SST,SSS,fu,fv,Q,E-P,i0,i1,a,b =   2.1600E+05  2.0403E-01  3.4422E+01 -3.9689E-02 -6.2670E-02  2.6521E+02  0.0000E+00    12     1  5.8333E-01  4.1667E-01
time,fu0,fu1,fu =   2.1600E+05 -4.5368E-02 -3.5633E-02 -3.9689E-02  5.833333333333334E-01  4.166666666666666E-01
 cg2d: Sum(rhs),rhsMax =  -1.17955992195995E-13  6.96038704691244E+00
time,SST,SSS,fu,fv,Q,E-P,i0,i1,a,b =   2.5920E+05  2.3421E-01  3.4434E+01 -3.9527E-02 -6.2453E-02  2.6523E+02  0.0000E+00    12     1  6.0000E-01  4.0000E-01
time,fu0,fu1,fu =   2.5920E+05 -4.5368E-02 -3.5633E-02 -3.9527E-02  6.000000000000000E-01  4.000000000000000E-01
 cg2d: Sum(rhs),rhsMax =   9.87708179134295E-15  7.26221759046286E+00
time,SST,SSS,fu,fv,Q,E-P,i0,i1,a,b =   3.0240E+05  2.6438E-01  3.4446E+01 -3.9365E-02 -6.2237E-02  2.6525E+02  0.0000E+00    12     1  6.1667E-01  3.8333E-01
time,fu0,fu1,fu =   3.0240E+05 -4.5368E-02 -3.5633E-02 -3.9365E-02  6.166666666666667E-01  3.833333333333333E-01
 cg2d: Sum(rhs),rhsMax =  -1.32285621259193E-13  7.87499194900246E+00
time,SST,SSS,fu,fv,Q,E-P,i0,i1,a,b =   3.4560E+05  2.9456E-01  3.4457E+01 -3.9202E-02 -6.2020E-02  2.6528E+02  0.0000E+00    12     1  6.3333E-01  3.6667E-01
time,fu0,fu1,fu =   3.4560E+05 -4.5368E-02 -3.5633E-02 -3.9202E-02  6.333333333333333E-01  3.666666666666667E-01
 cg2d: Sum(rhs),rhsMax =  -3.18497398593687E-13  8.21213972807563E+00
time,SST,SSS,fu,fv,Q,E-P,i0,i1,a,b =   3.8880E+05  3.2473E-01  3.4469E+01 -3.9040E-02 -6.1804E-02  2.6530E+02  0.0000E+00    12     1  6.5000E-01  3.5000E-01
time,fu0,fu1,fu =   3.8880E+05 -4.5368E-02 -3.5633E-02 -3.9040E-02  6.500000000000000E-01  3.500000000000000E-01
 cg2d: Sum(rhs),rhsMax =  -3.41125565295197E-13  8.31512136376637E+00
time,SST,SSS,fu,fv,Q,E-P,i0,i1,a,b =   4.3200E+05  3.5491E-01  3.4481E+01 -3.8878E-02 -6.1587E-02  2.6532E+02  0.0000E+00    12     1  6.6667E-01  3.3333E-01
time,fu0,fu1,fu =   4.3200E+05 -4.5368E-02 -3.5633E-02 -3.8878E-02  6.666666666666666E-01  3.333333333333334E-01
 cg2d: Sum(rhs),rhsMax =  -5.99284510904852E-13  8.25257067290293E+00
time,SST,SSS,fu,fv,Q,E-P,i0,i1,a,b =   4.7520E+05  3.8508E-01  3.4492E+01 -3.8716E-02 -6.1371E-02  2.6534E+02  0.0000E+00    12     1  6.8333E-01  3.1667E-01
time,fu0,fu1,fu =   4.7520E+05 -4.5368E-02 -3.5633E-02 -3.8716E-02  6.833333333333333E-01  3.166666666666667E-01
 cg2d: Sum(rhs),rhsMax =  -6.40413069796786E-13  8.09293762885829E+00
time,SST,SSS,fu,fv,Q,E-P,i0,i1,a,b =   5.1840E+05  4.1526E-01  3.4504E+01 -3.8553E-02 -6.1154E-02  2.6537E+02  0.0000E+00    12     1  7.0000E-01  3.0000E-01
time,fu0,fu1,fu =   5.1840E+05 -4.5368E-02 -3.5633E-02 -3.8553E-02  7.000000000000000E-01  3.000000000000000E-01
 cg2d: Sum(rhs),rhsMax =  -7.24004189933680E-13  8.55637530605071E+00
time,SST,SSS,fu,fv,Q,E-P,i0,i1,a,b =   5.6160E+05  4.4544E-01  3.4516E+01 -3.8391E-02 -6.0938E-02  2.6539E+02  0.0000E+00    12     1  7.1667E-01  2.8333E-01
time,fu0,fu1,fu =   5.6160E+05 -4.5368E-02 -3.5633E-02 -3.8391E-02  7.166666666666667E-01  2.833333333333333E-01
 cg2d: Sum(rhs),rhsMax =  -6.48862907848269E-13  9.25214403713225E+00
time,SST,SSS,fu,fv,Q,E-P,i0,i1,a,b =   6.0480E+05  4.7561E-01  3.4527E+01 -3.8229E-02 -6.0721E-02  2.6541E+02  0.0000E+00    12     1  7.3333E-01  2.6667E-01
time,fu0,fu1,fu =   6.0480E+05 -4.5368E-02 -3.5633E-02 -3.8229E-02  7.333333333333333E-01  2.666666666666667E-01
 cg2d: Sum(rhs),rhsMax =  -6.80988251899883E-13  9.75412758742916E+00
time,SST,SSS,fu,fv,Q,E-P,i0,i1,a,b =   6.4800E+05  5.0579E-01  3.4539E+01 -3.8067E-02 -6.0505E-02  2.6543E+02  0.0000E+00    12     1  7.5000E-01  2.5000E-01
time,fu0,fu1,fu =   6.4800E+05 -4.5368E-02 -3.5633E-02 -3.8067E-02  7.500000000000000E-01  2.500000000000000E-01
 cg2d: Sum(rhs),rhsMax =  -6.84469841916169E-13  1.00472791850534E+01
time,SST,SSS,fu,fv,Q,E-P,i0,i1,a,b =   6.9120E+05  5.3596E-01  3.4551E+01 -3.7904E-02 -6.0288E-02  2.6546E+02  0.0000E+00    12     1  7.6667E-01  2.3333E-01
time,fu0,fu1,fu =   6.9120E+05 -4.5368E-02 -3.5633E-02 -3.7904E-02  7.666666666666667E-01  2.333333333333333E-01
 cg2d: Sum(rhs),rhsMax =  -1.15850211368507E-12  1.01282964952822E+01
time,SST,SSS,fu,fv,Q,E-P,i0,i1,a,b =   7.3440E+05  5.6614E-01  3.4563E+01 -3.7742E-02 -6.0072E-02  2.6548E+02  0.0000E+00    12     1  7.8333E-01  2.1667E-01
time,fu0,fu1,fu =   7.3440E+05 -4.5368E-02 -3.5633E-02 -3.7742E-02  7.833333333333333E-01  2.166666666666667E-01
 cg2d: Sum(rhs),rhsMax =  -1.04538426526357E-12  1.00066236471322E+01
time,SST,SSS,fu,fv,Q,E-P,i0,i1,a,b =   7.7760E+05  5.9632E-01  3.4574E+01 -3.7580E-02 -5.9855E-02  2.6550E+02  0.0000E+00    12     1  8.0000E-01  2.0000E-01
time,fu0,fu1,fu =   7.7760E+05 -4.5368E-02 -3.5633E-02 -3.7580E-02  8.000000000000000E-01  2.000000000000000E-01
 cg2d: Sum(rhs),rhsMax =  -9.64220023269569E-13  9.70409645617080E+00
time,SST,SSS,fu,fv,Q,E-P,i0,i1,a,b =   8.2080E+05  6.2649E-01  3.4586E+01 -3.7418E-02 -5.9638E-02  2.6552E+02  0.0000E+00    12     1  8.1667E-01  1.8333E-01
time,fu0,fu1,fu =   8.2080E+05 -4.5368E-02 -3.5633E-02 -3.7418E-02  8.166666666666667E-01  1.833333333333333E-01
 cg2d: Sum(rhs),rhsMax =  -1.01705623090087E-12  9.47667283578007E+00
time,SST,SSS,fu,fv,Q,E-P,i0,i1,a,b =   8.6400E+05  6.5667E-01  3.4598E+01 -3.7255E-02 -5.9422E-02  2.6555E+02  0.0000E+00    12     1  8.3333E-01  1.6667E-01
time,fu0,fu1,fu =   8.6400E+05 -4.5368E-02 -3.5633E-02 -3.7255E-02  8.333333333333334E-01  1.666666666666666E-01
 cg2d: Sum(rhs),rhsMax =  -9.11397693426075E-13  1.03748401635910E+01
time,SST,SSS,fu,fv,Q,E-P,i0,i1,a,b =   9.0720E+05  6.8684E-01  3.4609E+01 -3.7093E-02 -5.9205E-02  2.6557E+02  0.0000E+00    12     1  8.5000E-01  1.5000E-01
time,fu0,fu1,fu =   9.0720E+05 -4.5368E-02 -3.5633E-02 -3.7093E-02  8.500000000000000E-01  1.500000000000000E-01
 cg2d: Sum(rhs),rhsMax =  -9.54156892385427E-13  1.11482726022294E+01
time,SST,SSS,fu,fv,Q,E-P,i0,i1,a,b =   9.5040E+05  7.1702E-01  3.4621E+01 -3.6931E-02 -5.8989E-02  2.6559E+02  0.0000E+00    12     1  8.6667E-01  1.3333E-01
time,fu0,fu1,fu =   9.5040E+05 -4.5368E-02 -3.5633E-02 -3.6931E-02  8.666666666666667E-01  1.333333333333333E-01
 cg2d: Sum(rhs),rhsMax =  -8.57414833577153E-13  1.17644190526996E+01
time,SST,SSS,fu,fv,Q,E-P,i0,i1,a,b =   9.9360E+05  7.4719E-01  3.4633E+01 -3.6769E-02 -5.8772E-02  2.6561E+02  0.0000E+00    12     1  8.8333E-01  1.1667E-01
time,fu0,fu1,fu =   9.9360E+05 -4.5368E-02 -3.5633E-02 -3.6769E-02  8.833333333333333E-01  1.166666666666667E-01
 cg2d: Sum(rhs),rhsMax =  -6.07651082229488E-13  1.21959720875444E+01
time,SST,SSS,fu,fv,Q,E-P,i0,i1,a,b =   1.0368E+06  7.7737E-01  3.4644E+01 -3.6606E-02 -5.8556E-02  2.6564E+02  0.0000E+00    12     1  9.0000E-01  1.0000E-01
time,fu0,fu1,fu =   1.0368E+06 -4.5368E-02 -3.5633E-02 -3.6606E-02  9.000000000000000E-01  9.999999999999998E-02
 cg2d: Sum(rhs),rhsMax =  -8.23997120535935E-13  1.24221987652449E+01
time,SST,SSS,fu,fv,Q,E-P,i0,i1,a,b =   1.0800E+06  8.0755E-01  3.4656E+01 -3.6444E-02 -5.8339E-02  2.6566E+02  0.0000E+00    12     1  9.1667E-01  8.3333E-02
time,fu0,fu1,fu =   1.0800E+06 -4.5368E-02 -3.5633E-02 -3.6444E-02  9.166666666666666E-01  8.333333333333337E-02
 cg2d: Sum(rhs),rhsMax =  -1.07931892590063E-12  1.24298971531250E+01
time,SST,SSS,fu,fv,Q,E-P,i0,i1,a,b =   1.1232E+06  8.3772E-01  3.4668E+01 -3.6282E-02 -5.8123E-02  2.6568E+02  0.0000E+00    12     1  9.3333E-01  6.6667E-02
time,fu0,fu1,fu =   1.1232E+06 -4.5368E-02 -3.5633E-02 -3.6282E-02  9.333333333333333E-01  6.666666666666665E-02
 cg2d: Sum(rhs),rhsMax =  -1.04499742192843E-12  1.22139653314615E+01
time,SST,SSS,fu,fv,Q,E-P,i0,i1,a,b =   1.1664E+06  8.6790E-01  3.4679E+01 -3.6120E-02 -5.7906E-02  2.6570E+02  0.0000E+00    12     1  9.5000E-01  5.0000E-02
time,fu0,fu1,fu =   1.1664E+06 -4.5368E-02 -3.5633E-02 -3.6120E-02  9.500000000000000E-01  5.000000000000004E-02
 cg2d: Sum(rhs),rhsMax =  -1.07744022037615E-12  1.17775992285544E+01
time,SST,SSS,fu,fv,Q,E-P,i0,i1,a,b =   1.2096E+06  8.9807E-01  3.4691E+01 -3.5957E-02 -5.7690E-02  2.6573E+02  0.0000E+00    12     1  9.6667E-01  3.3333E-02
time,fu0,fu1,fu =   1.2096E+06 -4.5368E-02 -3.5633E-02 -3.5957E-02  9.666666666666667E-01  3.333333333333333E-02
 cg2d: Sum(rhs),rhsMax =  -1.18429918649632E-12  1.11321543548089E+01
time,SST,SSS,fu,fv,Q,E-P,i0,i1,a,b =   1.2528E+06  9.2825E-01  3.4703E+01 -3.5795E-02 -5.7473E-02  2.6575E+02  0.0000E+00    12     1  9.8333E-01  1.6667E-02
time,fu0,fu1,fu =   1.2528E+06 -4.5368E-02 -3.5633E-02 -3.5795E-02  9.833333333333333E-01  1.666666666666672E-02
 cg2d: Sum(rhs),rhsMax =  -1.23828031162176E-12  1.02967139424964E+01
S/R EXTERNAL_FIELDS_LOAD: Reading new data:    1    2        30  1.296000000000E+06
(PID.TID 0000.0001)  MDSREADFIELD: opening global file: trenberth_taux.bin
(PID.TID 0000.0001)  MDSREADFIELD: opening global file: trenberth_taux.bin
(PID.TID 0000.0001)  MDSREADFIELD: opening global file: trenberth_tauy.bin
(PID.TID 0000.0001)  MDSREADFIELD: opening global file: trenberth_tauy.bin
(PID.TID 0000.0001)  MDSREADFIELD: opening global file: ncep_qnet.bin
(PID.TID 0000.0001)  MDSREADFIELD: opening global file: ncep_qnet.bin
(PID.TID 0000.0001)  MDSREADFIELD: opening global file: lev_sst.bin
(PID.TID 0000.0001)  MDSREADFIELD: opening global file: lev_sst.bin
(PID.TID 0000.0001)  MDSREADFIELD: opening global file: lev_sss.bin
(PID.TID 0000.0001)  MDSREADFIELD: opening global file: lev_sss.bin
time,SST,SSS,fu,fv,Q,E-P,i0,i1,a,b =   1.2960E+06  9.5843E-01  3.4715E+01 -3.5633E-02 -5.7257E-02  2.6577E+02  0.0000E+00     1     2  0.0000E+00  1.0000E+00
time,fu0,fu1,fu =   1.2960E+06 -3.5633E-02 -1.4435E-02 -3.5633E-02  0.000000000000000E+00  1.000000000000000E+00
 cg2d: Sum(rhs),rhsMax =  -1.34728686540520E-12  9.29740447860595E+00
time,SST,SSS,fu,fv,Q,E-P,i0,i1,a,b =   1.3392E+06  9.3359E-01  3.4710E+01 -3.5280E-02 -5.6596E-02  2.6535E+02  0.0000E+00     1     2  1.6667E-02  9.8333E-01
time,fu0,fu1,fu =   1.3392E+06 -3.5633E-02 -1.4435E-02 -3.5280E-02  1.666666666666667E-02  9.833333333333333E-01
 cg2d: Sum(rhs),rhsMax =  -1.09411785187419E-12  9.11143528718028E+00
time,SST,SSS,fu,fv,Q,E-P,i0,i1,a,b =   1.3824E+06  9.0875E-01  3.4705E+01 -3.4926E-02 -5.5936E-02  2.6493E+02  0.0000E+00     1     2  3.3333E-02  9.6667E-01
time,fu0,fu1,fu =   1.3824E+06 -3.5633E-02 -1.4435E-02 -3.4926E-02  3.333333333333333E-02  9.666666666666667E-01
 cg2d: Sum(rhs),rhsMax =  -1.47255818649938E-12  9.23484342203282E+00
time,SST,SSS,fu,fv,Q,E-P,i0,i1,a,b =   1.4256E+06  8.8391E-01  3.4700E+01 -3.4573E-02 -5.5276E-02  2.6451E+02  0.0000E+00     1     2  5.0000E-02  9.5000E-01
time,fu0,fu1,fu =   1.4256E+06 -3.5633E-02 -1.4435E-02 -3.4573E-02  5.000000000000000E-02  9.500000000000000E-01
 cg2d: Sum(rhs),rhsMax =  -1.75801734281222E-12  9.27184123914893E+00
time,SST,SSS,fu,fv,Q,E-P,i0,i1,a,b =   1.4688E+06  8.5907E-01  3.4695E+01 -3.4220E-02 -5.4615E-02  2.6408E+02  0.0000E+00     1     2  6.6667E-02  9.3333E-01
time,fu0,fu1,fu =   1.4688E+06 -3.5633E-02 -1.4435E-02 -3.4220E-02  6.666666666666667E-02  9.333333333333333E-01
 cg2d: Sum(rhs),rhsMax =  -1.10694786670251E-12  9.21972113560534E+00
time,SST,SSS,fu,fv,Q,E-P,i0,i1,a,b =   1.5120E+06  8.3424E-01  3.4690E+01 -3.3866E-02 -5.3955E-02  2.6366E+02  0.0000E+00     1     2  8.3333E-02  9.1667E-01
time,fu0,fu1,fu =   1.5120E+06 -3.5633E-02 -1.4435E-02 -3.3866E-02  8.333333333333333E-02  9.166666666666666E-01
 cg2d: Sum(rhs),rhsMax =  -1.17995196946552E-12  9.07797564024456E+00
time,SST,SSS,fu,fv,Q,E-P,i0,i1,a,b =   1.5552E+06  8.0940E-01  3.4685E+01 -3.3513E-02 -5.3295E-02  2.6324E+02  0.0000E+00     1     2  1.0000E-01  9.0000E-01
time,fu0,fu1,fu =   1.5552E+06 -3.5633E-02 -1.4435E-02 -3.3513E-02  1.000000000000000E-01  9.000000000000000E-01
 cg2d: Sum(rhs),rhsMax =  -1.51429563333139E-12  8.84823986971589E+00
time,SST,SSS,fu,fv,Q,E-P,i0,i1,a,b =   1.5984E+06  7.8456E-01  3.4680E+01 -3.3160E-02 -5.2634E-02  2.6282E+02  0.0000E+00     1     2  1.1667E-01  8.8333E-01
time,fu0,fu1,fu =   1.5984E+06 -3.5633E-02 -1.4435E-02 -3.3160E-02  1.166666666666667E-01  8.833333333333333E-01
 cg2d: Sum(rhs),rhsMax =  -1.01280095421430E-12  8.53412825154015E+00
time,SST,SSS,fu,fv,Q,E-P,i0,i1,a,b =   1.6416E+06  7.5972E-01  3.4675E+01 -3.2807E-02 -5.1974E-02  2.6240E+02  0.0000E+00     1     2  1.3333E-01  8.6667E-01
time,fu0,fu1,fu =   1.6416E+06 -3.5633E-02 -1.4435E-02 -3.2807E-02  1.333333333333333E-01  8.666666666666667E-01
 cg2d: Sum(rhs),rhsMax =  -9.03575825272895E-13  8.14100488295260E+00
time,SST,SSS,fu,fv,Q,E-P,i0,i1,a,b =   1.6848E+06  7.3488E-01  3.4671E+01 -3.2453E-02 -5.1313E-02  2.6198E+02  0.0000E+00     1     2  1.5000E-01  8.5000E-01
time,fu0,fu1,fu =   1.6848E+06 -3.5633E-02 -1.4435E-02 -3.2453E-02  1.500000000000000E-01  8.500000000000000E-01
 cg2d: Sum(rhs),rhsMax =  -8.85680417894719E-13  7.67572633323960E+00
time,SST,SSS,fu,fv,Q,E-P,i0,i1,a,b =   1.7280E+06  7.1005E-01  3.4666E+01 -3.2100E-02 -5.0653E-02  2.6156E+02  0.0000E+00     1     2  1.6667E-01  8.3333E-01
time,fu0,fu1,fu =   1.7280E+06 -3.5633E-02 -1.4435E-02 -3.2100E-02  1.666666666666667E-01  8.333333333333334E-01
 cg2d: Sum(rhs),rhsMax =  -1.41369554951254E-12  7.14638845753352E+00
time,SST,SSS,fu,fv,Q,E-P,i0,i1,a,b =   1.7712E+06  6.8521E-01  3.4661E+01 -3.1747E-02 -4.9993E-02  2.6113E+02  0.0000E+00     1     2  1.8333E-01  8.1667E-01
time,fu0,fu1,fu =   1.7712E+06 -3.5633E-02 -1.4435E-02 -3.1747E-02  1.833333333333333E-01  8.166666666666667E-01
 cg2d: Sum(rhs),rhsMax =  -2.78402301212566E-13  7.16032444209467E+00
time,SST,SSS,fu,fv,Q,E-P,i0,i1,a,b =   1.8144E+06  6.6037E-01  3.4656E+01 -3.1393E-02 -4.9332E-02  2.6071E+02  0.0000E+00     1     2  2.0000E-01  8.0000E-01
time,fu0,fu1,fu =   1.8144E+06 -3.5633E-02 -1.4435E-02 -3.1393E-02  2.000000000000000E-01  8.000000000000000E-01
 cg2d: Sum(rhs),rhsMax =   1.07566733298370E-13  7.19604412894201E+00
time,SST,SSS,fu,fv,Q,E-P,i0,i1,a,b =   1.8576E+06  6.3553E-01  3.4651E+01 -3.1040E-02 -4.8672E-02  2.6029E+02  0.0000E+00     1     2  2.1667E-01  7.8333E-01
time,fu0,fu1,fu =   1.8576E+06 -3.5633E-02 -1.4435E-02 -3.1040E-02  2.166666666666667E-01  7.833333333333333E-01
 cg2d: Sum(rhs),rhsMax =   7.62584440039404E-15  7.21623311609593E+00
time,SST,SSS,fu,fv,Q,E-P,i0,i1,a,b =   1.9008E+06  6.1069E-01  3.4646E+01 -3.0687E-02 -4.8012E-02  2.5987E+02  0.0000E+00     1     2  2.3333E-01  7.6667E-01
time,fu0,fu1,fu =   1.9008E+06 -3.5633E-02 -1.4435E-02 -3.0687E-02  2.333333333333333E-01  7.666666666666666E-01
 cg2d: Sum(rhs),rhsMax =  -4.12794798343441E-13  7.36407458780969E+00
time,SST,SSS,fu,fv,Q,E-P,i0,i1,a,b =   1.9440E+06  5.8585E-01  3.4641E+01 -3.0333E-02 -4.7351E-02  2.5945E+02  0.0000E+00     1     2  2.5000E-01  7.5000E-01
time,fu0,fu1,fu =   1.9440E+06 -3.5633E-02 -1.4435E-02 -3.0333E-02  2.500000000000000E-01  7.500000000000000E-01
 cg2d: Sum(rhs),rhsMax =   2.50223453068799E-13  7.63412022430594E+00
time,SST,SSS,fu,fv,Q,E-P,i0,i1,a,b =   1.9872E+06  5.6102E-01  3.4636E+01 -2.9980E-02 -4.6691E-02  2.5903E+02  0.0000E+00     1     2  2.6667E-01  7.3333E-01
time,fu0,fu1,fu =   1.9872E+06 -3.5633E-02 -1.4435E-02 -2.9980E-02  2.666666666666667E-01  7.333333333333334E-01
 cg2d: Sum(rhs),rhsMax =   2.18942919349985E-13  7.83757999009940E+00
time,SST,SSS,fu,fv,Q,E-P,i0,i1,a,b =   2.0304E+06  5.3618E-01  3.4631E+01 -2.9627E-02 -4.6031E-02  2.5861E+02  0.0000E+00     1     2  2.8333E-01  7.1667E-01
time,fu0,fu1,fu =   2.0304E+06 -3.5633E-02 -1.4435E-02 -2.9627E-02  2.833333333333333E-01  7.166666666666667E-01
 cg2d: Sum(rhs),rhsMax =   1.12194975532276E-13  7.97661679814900E+00
time,SST,SSS,fu,fv,Q,E-P,i0,i1,a,b =   2.0736E+06  5.1134E-01  3.4627E+01 -2.9273E-02 -4.5370E-02  2.5818E+02  0.0000E+00     1     2  3.0000E-01  7.0000E-01
time,fu0,fu1,fu =   2.0736E+06 -3.5633E-02 -1.4435E-02 -2.9273E-02  3.000000000000000E-01  7.000000000000000E-01
 cg2d: Sum(rhs),rhsMax =   2.50119369660240E-13  8.05769559821270E+00
time,SST,SSS,fu,fv,Q,E-P,i0,i1,a,b =   2.1168E+06  4.8650E-01  3.4622E+01 -2.8920E-02 -4.4710E-02  2.5776E+02  0.0000E+00     1     2  3.1667E-01  6.8333E-01
time,fu0,fu1,fu =   2.1168E+06 -3.5633E-02 -1.4435E-02 -2.8920E-02  3.166666666666667E-01  6.833333333333333E-01
 cg2d: Sum(rhs),rhsMax =   3.77475828372553E-14  8.09041726307916E+00
time,SST,SSS,fu,fv,Q,E-P,i0,i1,a,b =   2.1600E+06  4.6166E-01  3.4617E+01 -2.8567E-02 -4.4050E-02  2.5734E+02  0.0000E+00     1     2  3.3333E-01  6.6667E-01
time,fu0,fu1,fu =   2.1600E+06 -3.5633E-02 -1.4435E-02 -2.8567E-02  3.333333333333333E-01  6.666666666666667E-01
 cg2d: Sum(rhs),rhsMax =   9.02632135701964E-13  8.08616468530189E+00
time,SST,SSS,fu,fv,Q,E-P,i0,i1,a,b =   2.2032E+06  4.3683E-01  3.4612E+01 -2.8214E-02 -4.3389E-02  2.5692E+02  0.0000E+00     1     2  3.5000E-01  6.5000E-01
time,fu0,fu1,fu =   2.2032E+06 -3.5633E-02 -1.4435E-02 -2.8214E-02  3.500000000000000E-01  6.500000000000000E-01
 cg2d: Sum(rhs),rhsMax =   7.51093631734534E-13  8.05674137227300E+00
time,SST,SSS,fu,fv,Q,E-P,i0,i1,a,b =   2.2464E+06  4.1199E-01  3.4607E+01 -2.7860E-02 -4.2729E-02  2.5650E+02  0.0000E+00     1     2  3.6667E-01  6.3333E-01
time,fu0,fu1,fu =   2.2464E+06 -3.5633E-02 -1.4435E-02 -2.7860E-02  3.666666666666666E-01  6.333333333333333E-01
 cg2d: Sum(rhs),rhsMax =   2.05009620390939E-13  8.18299933875206E+00
time,SST,SSS,fu,fv,Q,E-P,i0,i1,a,b =   2.2896E+06  3.8715E-01  3.4602E+01 -2.7507E-02 -4.2069E-02  2.5608E+02  0.0000E+00     1     2  3.8333E-01  6.1667E-01
time,fu0,fu1,fu =   2.2896E+06 -3.5633E-02 -1.4435E-02 -2.7507E-02  3.833333333333334E-01  6.166666666666667E-01
 cg2d: Sum(rhs),rhsMax =   1.98271954410245E-13  9.40876997244271E+00
time,SST,SSS,fu,fv,Q,E-P,i0,i1,a,b =   2.3328E+06  3.6231E-01  3.4597E+01 -2.7154E-02 -4.1408E-02  2.5565E+02  0.0000E+00     1     2  4.0000E-01  6.0000E-01
time,fu0,fu1,fu =   2.3328E+06 -3.5633E-02 -1.4435E-02 -2.7154E-02  4.000000000000000E-01  6.000000000000000E-01
 cg2d: Sum(rhs),rhsMax =   1.00038033412631E-12  1.05293283609318E+01
time,SST,SSS,fu,fv,Q,E-P,i0,i1,a,b =   2.3760E+06  3.3747E-01  3.4592E+01 -2.6800E-02 -4.0748E-02  2.5523E+02  0.0000E+00     1     2  4.1667E-01  5.8333E-01
time,fu0,fu1,fu =   2.3760E+06 -3.5633E-02 -1.4435E-02 -2.6800E-02  4.166666666666667E-01  5.833333333333333E-01
 cg2d: Sum(rhs),rhsMax =   7.49407480515885E-13  1.15144716914192E+01
time,SST,SSS,fu,fv,Q,E-P,i0,i1,a,b =   2.4192E+06  3.1264E-01  3.4587E+01 -2.6447E-02 -4.0088E-02  2.5481E+02  0.0000E+00     1     2  4.3333E-01  5.6667E-01
time,fu0,fu1,fu =   2.4192E+06 -3.5633E-02 -1.4435E-02 -2.6447E-02  4.333333333333333E-01  5.666666666666667E-01
 cg2d: Sum(rhs),rhsMax =   1.60827601236591E-12  1.23395348414352E+01
time,SST,SSS,fu,fv,Q,E-P,i0,i1,a,b =   2.4624E+06  2.8780E-01  3.4582E+01 -2.6094E-02 -3.9427E-02  2.5439E+02  0.0000E+00     1     2  4.5000E-01  5.5000E-01
time,fu0,fu1,fu =   2.4624E+06 -3.5633E-02 -1.4435E-02 -2.6094E-02  4.500000000000000E-01  5.500000000000000E-01
 cg2d: Sum(rhs),rhsMax =   2.03664168862971E-12  1.29859659706056E+01
time,SST,SSS,fu,fv,Q,E-P,i0,i1,a,b =   2.5056E+06  2.6296E-01  3.4578E+01 -2.5740E-02 -3.8767E-02  2.5397E+02  0.0000E+00     1     2  4.6667E-01  5.3333E-01
time,fu0,fu1,fu =   2.5056E+06 -3.5633E-02 -1.4435E-02 -2.5740E-02  4.666666666666667E-01  5.333333333333333E-01
 cg2d: Sum(rhs),rhsMax =   2.34241098739929E-12  1.34416466769054E+01
time,SST,SSS,fu,fv,Q,E-P,i0,i1,a,b =   2.5488E+06  2.3812E-01  3.4573E+01 -2.5387E-02 -3.8106E-02  2.5355E+02  0.0000E+00     1     2  4.8333E-01  5.1667E-01
time,fu0,fu1,fu =   2.5488E+06 -3.5633E-02 -1.4435E-02 -2.5387E-02  4.833333333333333E-01  5.166666666666666E-01
 cg2d: Sum(rhs),rhsMax =   2.14253614849724E-12  1.37009644671071E+01
time,SST,SSS,fu,fv,Q,E-P,i0,i1,a,b =   2.5920E+06  2.1328E-01  3.4568E+01 -2.5034E-02 -3.7446E-02  2.5313E+02  0.0000E+00     1     2  5.0000E-01  5.0000E-01
time,fu0,fu1,fu =   2.5920E+06 -3.5633E-02 -1.4435E-02 -2.5034E-02  5.000000000000000E-01  5.000000000000000E-01
 cg2d: Sum(rhs),rhsMax =   2.85241968933647E-12  1.37646542570023E+01
time,SST,SSS,fu,fv,Q,E-P,i0,i1,a,b =   2.6352E+06  1.8845E-01  3.4563E+01 -2.4681E-02 -3.6786E-02  2.5270E+02  0.0000E+00     1     2  5.1667E-01  4.8333E-01
time,fu0,fu1,fu =   2.6352E+06 -3.5633E-02 -1.4435E-02 -2.4681E-02  5.166666666666667E-01  4.833333333333333E-01
 cg2d: Sum(rhs),rhsMax =   2.87361801021291E-12  1.36394326796378E+01
time,SST,SSS,fu,fv,Q,E-P,i0,i1,a,b =   2.6784E+06  1.6361E-01  3.4558E+01 -2.4327E-02 -3.6125E-02  2.5228E+02  0.0000E+00     1     2  5.3333E-01  4.6667E-01
time,fu0,fu1,fu =   2.6784E+06 -3.5633E-02 -1.4435E-02 -2.4327E-02  5.333333333333333E-01  4.666666666666667E-01
 cg2d: Sum(rhs),rhsMax =   2.43664810550825E-12  1.33374542008437E+01
time,SST,SSS,fu,fv,Q,E-P,i0,i1,a,b =   2.7216E+06  1.3877E-01  3.4553E+01 -2.3974E-02 -3.5465E-02  2.5186E+02  0.0000E+00     1     2  5.5000E-01  4.5000E-01
time,fu0,fu1,fu =   2.7216E+06 -3.5633E-02 -1.4435E-02 -2.3974E-02  5.500000000000000E-01  4.500000000000000E-01
 cg2d: Sum(rhs),rhsMax =   3.13941928009598E-12  1.28756215697525E+01
time,SST,SSS,fu,fv,Q,E-P,i0,i1,a,b =   2.7648E+06  1.1393E-01  3.4548E+01 -2.3621E-02 -3.4805E-02  2.5144E+02  0.0000E+00     1     2  5.6667E-01  4.3333E-01
time,fu0,fu1,fu =   2.7648E+06 -3.5633E-02 -1.4435E-02 -2.3621E-02  5.666666666666667E-01  4.333333333333333E-01
 cg2d: Sum(rhs),rhsMax =   3.49895112883303E-12  1.22747851536260E+01
time,SST,SSS,fu,fv,Q,E-P,i0,i1,a,b =   2.8080E+06  8.9094E-02  3.4543E+01 -2.3267E-02 -3.4144E-02  2.5102E+02  0.0000E+00     1     2  5.8333E-01  4.1667E-01
time,fu0,fu1,fu =   2.8080E+06 -3.5633E-02 -1.4435E-02 -2.3267E-02  5.833333333333334E-01  4.166666666666666E-01
 cg2d: Sum(rhs),rhsMax =   3.54534457347455E-12  1.15588664071724E+01
time,SST,SSS,fu,fv,Q,E-P,i0,i1,a,b =   2.8512E+06  6.4256E-02  3.4538E+01 -2.2914E-02 -3.3484E-02  2.5060E+02  0.0000E+00     1     2  6.0000E-01  4.0000E-01
time,fu0,fu1,fu =   2.8512E+06 -3.5633E-02 -1.4435E-02 -2.2914E-02  6.000000000000000E-01  4.000000000000000E-01
 cg2d: Sum(rhs),rhsMax =   4.12173073449651E-12  1.07539402723234E+01
time,SST,SSS,fu,fv,Q,E-P,i0,i1,a,b =   2.8944E+06  3.9418E-02  3.4534E+01 -2.2561E-02 -3.2824E-02  2.5018E+02  0.0000E+00     1     2  6.1667E-01  3.8333E-01
time,fu0,fu1,fu =   2.8944E+06 -3.5633E-02 -1.4435E-02 -2.2561E-02  6.166666666666667E-01  3.833333333333333E-01
 cg2d: Sum(rhs),rhsMax =   4.11132933253455E-12  9.88730983462039E+00
time,SST,SSS,fu,fv,Q,E-P,i0,i1,a,b =   2.9376E+06  1.4580E-02  3.4529E+01 -2.2207E-02 -3.2163E-02  2.4975E+02  0.0000E+00     1     2  6.3333E-01  3.6667E-01
time,fu0,fu1,fu =   2.9376E+06 -3.5633E-02 -1.4435E-02 -2.2207E-02  6.333333333333333E-01  3.666666666666667E-01
 cg2d: Sum(rhs),rhsMax =   3.71746383676097E-12  8.98660419546648E+00
time,SST,SSS,fu,fv,Q,E-P,i0,i1,a,b =   2.9808E+06 -1.0258E-02  3.4524E+01 -2.1854E-02 -3.1503E-02  2.4933E+02  0.0000E+00     1     2  6.5000E-01  3.5000E-01
time,fu0,fu1,fu =   2.9808E+06 -3.5633E-02 -1.4435E-02 -2.1854E-02  6.500000000000000E-01  3.500000000000000E-01
 cg2d: Sum(rhs),rhsMax =   3.71078168193151E-12  8.07892736504317E+00
time,SST,SSS,fu,fv,Q,E-P,i0,i1,a,b =   3.0240E+06 -3.5096E-02  3.4519E+01 -2.1501E-02 -3.0843E-02  2.4891E+02  0.0000E+00     1     2  6.6667E-01  3.3333E-01
time,fu0,fu1,fu =   3.0240E+06 -3.5633E-02 -1.4435E-02 -2.1501E-02  6.666666666666666E-01  3.333333333333334E-01
 cg2d: Sum(rhs),rhsMax =   3.26805249528661E-12  7.98205142166786E+00
time,SST,SSS,fu,fv,Q,E-P,i0,i1,a,b =   3.0672E+06 -5.9934E-02  3.4514E+01 -2.1147E-02 -3.0182E-02  2.4849E+02  0.0000E+00     1     2  6.8333E-01  3.1667E-01
time,fu0,fu1,fu =   3.0672E+06 -3.5633E-02 -1.4435E-02 -2.1147E-02  6.833333333333333E-01  3.166666666666667E-01
 cg2d: Sum(rhs),rhsMax =   2.62598276457027E-12  8.00388446367162E+00
time,SST,SSS,fu,fv,Q,E-P,i0,i1,a,b =   3.1104E+06 -8.4772E-02  3.4509E+01 -2.0794E-02 -2.9522E-02  2.4807E+02  0.0000E+00     1     2  7.0000E-01  3.0000E-01
time,fu0,fu1,fu =   3.1104E+06 -3.5633E-02 -1.4435E-02 -2.0794E-02  7.000000000000000E-01  3.000000000000000E-01
 cg2d: Sum(rhs),rhsMax =   3.32109340028808E-12  8.02911819030539E+00
time,SST,SSS,fu,fv,Q,E-P,i0,i1,a,b =   3.1536E+06 -1.0961E-01  3.4504E+01 -2.0441E-02 -2.8862E-02  2.4765E+02  0.0000E+00     1     2  7.1667E-01  2.8333E-01
time,fu0,fu1,fu =   3.1536E+06 -3.5633E-02 -1.4435E-02 -2.0441E-02  7.166666666666667E-01  2.833333333333333E-01
 cg2d: Sum(rhs),rhsMax =   2.66328625819767E-12  8.49105136288463E+00
time,SST,SSS,fu,fv,Q,E-P,i0,i1,a,b =   3.1968E+06 -1.3445E-01  3.4499E+01 -2.0088E-02 -2.8201E-02  2.4722E+02  0.0000E+00     1     2  7.3333E-01  2.6667E-01
time,fu0,fu1,fu =   3.1968E+06 -3.5633E-02 -1.4435E-02 -2.0088E-02  7.333333333333333E-01  2.666666666666667E-01
 cg2d: Sum(rhs),rhsMax =   2.37141556391762E-12  8.90375481805890E+00
time,SST,SSS,fu,fv,Q,E-P,i0,i1,a,b =   3.2400E+06 -1.5929E-01  3.4494E+01 -1.9734E-02 -2.7541E-02  2.4680E+02  0.0000E+00     1     2  7.5000E-01  2.5000E-01
time,fu0,fu1,fu =   3.2400E+06 -3.5633E-02 -1.4435E-02 -1.9734E-02  7.500000000000000E-01  2.500000000000000E-01
 cg2d: Sum(rhs),rhsMax =   2.25489765748321E-12  9.21995793871482E+00
time,SST,SSS,fu,fv,Q,E-P,i0,i1,a,b =   3.2832E+06 -1.8412E-01  3.4490E+01 -1.9381E-02 -2.6880E-02  2.4638E+02  0.0000E+00     1     2  7.6667E-01  2.3333E-01
time,fu0,fu1,fu =   3.2832E+06 -3.5633E-02 -1.4435E-02 -1.9381E-02  7.666666666666667E-01  2.333333333333333E-01
 cg2d: Sum(rhs),rhsMax =   2.20532619943370E-12  9.43408934898056E+00
time,SST,SSS,fu,fv,Q,E-P,i0,i1,a,b =   3.3264E+06 -2.0896E-01  3.4485E+01 -1.9028E-02 -2.6220E-02  2.4596E+02  0.0000E+00     1     2  7.8333E-01  2.1667E-01
time,fu0,fu1,fu =   3.3264E+06 -3.5633E-02 -1.4435E-02 -1.9028E-02  7.833333333333333E-01  2.166666666666667E-01
 cg2d: Sum(rhs),rhsMax =   2.23611407168534E-12  9.54305714875989E+00
time,SST,SSS,fu,fv,Q,E-P,i0,i1,a,b =   3.3696E+06 -2.3380E-01  3.4480E+01 -1.8674E-02 -2.5560E-02  2.4554E+02  0.0000E+00     1     2  8.0000E-01  2.0000E-01
time,fu0,fu1,fu =   3.3696E+06 -3.5633E-02 -1.4435E-02 -1.8674E-02  8.000000000000000E-01  2.000000000000000E-01
 cg2d: Sum(rhs),rhsMax =   2.35293728945152E-12  9.54626022711280E+00
time,SST,SSS,fu,fv,Q,E-P,i0,i1,a,b =   3.4128E+06 -2.5864E-01  3.4475E+01 -1.8321E-02 -2.4899E-02  2.4512E+02  0.0000E+00     1     2  8.1667E-01  1.8333E-01
time,fu0,fu1,fu =   3.4128E+06 -3.5633E-02 -1.4435E-02 -1.8321E-02  8.166666666666667E-01  1.833333333333333E-01
 cg2d: Sum(rhs),rhsMax =   2.18375317828645E-12  9.44553414063406E+00
time,SST,SSS,fu,fv,Q,E-P,i0,i1,a,b =   3.4560E+06 -2.8348E-01  3.4470E+01 -1.7968E-02 -2.4239E-02  2.4470E+02  0.0000E+00     1     2  8.3333E-01  1.6667E-01
time,fu0,fu1,fu =   3.4560E+06 -3.5633E-02 -1.4435E-02 -1.7968E-02  8.333333333333334E-01  1.666666666666666E-01
 cg2d: Sum(rhs),rhsMax =   2.18385726169501E-12  9.24503800862220E+00
time,SST,SSS,fu,fv,Q,E-P,i0,i1,a,b =   3.4992E+06 -3.0831E-01  3.4465E+01 -1.7614E-02 -2.3579E-02  2.4427E+02  0.0000E+00     1     2  8.5000E-01  1.5000E-01
time,fu0,fu1,fu =   3.4992E+06 -3.5633E-02 -1.4435E-02 -1.7614E-02  8.500000000000000E-01  1.500000000000000E-01
 cg2d: Sum(rhs),rhsMax =   2.26858115626172E-12  8.95109007405973E+00
time,SST,SSS,fu,fv,Q,E-P,i0,i1,a,b =   3.5424E+06 -3.3315E-01  3.4460E+01 -1.7261E-02 -2.2918E-02  2.4385E+02  0.0000E+00     1     2  8.6667E-01  1.3333E-01
time,fu0,fu1,fu =   3.5424E+06 -3.5633E-02 -1.4435E-02 -1.7261E-02  8.666666666666667E-01  1.333333333333333E-01
 cg2d: Sum(rhs),rhsMax =   2.84774981373914E-12  8.57196022112412E+00
time,SST,SSS,fu,fv,Q,E-P,i0,i1,a,b =   3.5856E+06 -3.5799E-01  3.4455E+01 -1.6908E-02 -2.2258E-02  2.4343E+02  0.0000E+00     1     2  8.8333E-01  1.1667E-01
time,fu0,fu1,fu =   3.5856E+06 -3.5633E-02 -1.4435E-02 -1.6908E-02  8.833333333333333E-01  1.166666666666667E-01
 cg2d: Sum(rhs),rhsMax =   3.33609528890833E-12  8.11762790727958E+00
time,SST,SSS,fu,fv,Q,E-P,i0,i1,a,b =   3.6288E+06 -3.8283E-01  3.4450E+01 -1.6555E-02 -2.1598E-02  2.4301E+02  0.0000E+00     1     2  9.0000E-01  1.0000E-01
time,fu0,fu1,fu =   3.6288E+06 -3.5633E-02 -1.4435E-02 -1.6555E-02  9.000000000000000E-01  9.999999999999998E-02
 cg2d: Sum(rhs),rhsMax =   4.29582758254554E-12  8.02199630053152E+00
time,SST,SSS,fu,fv,Q,E-P,i0,i1,a,b =   3.6720E+06 -4.0767E-01  3.4446E+01 -1.6201E-02 -2.0937E-02  2.4259E+02  0.0000E+00     1     2  9.1667E-01  8.3333E-02
time,fu0,fu1,fu =   3.6720E+06 -3.5633E-02 -1.4435E-02 -1.6201E-02  9.166666666666666E-01  8.333333333333337E-02
 cg2d: Sum(rhs),rhsMax =   3.79292430796596E-12  7.98965233791552E+00
time,SST,SSS,fu,fv,Q,E-P,i0,i1,a,b =   3.7152E+06 -4.3250E-01  3.4441E+01 -1.5848E-02 -2.0277E-02  2.4217E+02  0.0000E+00     1     2  9.3333E-01  6.6667E-02
time,fu0,fu1,fu =   3.7152E+06 -3.5633E-02 -1.4435E-02 -1.5848E-02  9.333333333333333E-01  6.666666666666665E-02
 cg2d: Sum(rhs),rhsMax =   4.23495960522047E-12  7.95826433496932E+00
time,SST,SSS,fu,fv,Q,E-P,i0,i1,a,b =   3.7584E+06 -4.5734E-01  3.4436E+01 -1.5495E-02 -1.9617E-02  2.4175E+02  0.0000E+00     1     2  9.5000E-01  5.0000E-02
time,fu0,fu1,fu =   3.7584E+06 -3.5633E-02 -1.4435E-02 -1.5495E-02  9.500000000000000E-01  5.000000000000004E-02
 cg2d: Sum(rhs),rhsMax =   4.05550593107762E-12  7.92999020623616E+00
time,SST,SSS,fu,fv,Q,E-P,i0,i1,a,b =   3.8016E+06 -4.8218E-01  3.4431E+01 -1.5141E-02 -1.8956E-02  2.4132E+02  0.0000E+00     1     2  9.6667E-01  3.3333E-02
time,fu0,fu1,fu =   3.8016E+06 -3.5633E-02 -1.4435E-02 -1.5141E-02  9.666666666666667E-01  3.333333333333333E-02
 cg2d: Sum(rhs),rhsMax =   4.75422479162546E-12  7.90697481207766E+00
time,SST,SSS,fu,fv,Q,E-P,i0,i1,a,b =   3.8448E+06 -5.0702E-01  3.4426E+01 -1.4788E-02 -1.8296E-02  2.4090E+02  0.0000E+00     1     2  9.8333E-01  1.6667E-02
time,fu0,fu1,fu =   3.8448E+06 -3.5633E-02 -1.4435E-02 -1.4788E-02  9.833333333333333E-01  1.666666666666672E-02
 cg2d: Sum(rhs),rhsMax =   4.30043500809774E-12  7.89125105928282E+00
S/R EXTERNAL_FIELDS_LOAD: Reading new data:    2    3        90  3.888000000000E+06
(PID.TID 0000.0001)  MDSREADFIELD: opening global file: trenberth_taux.bin
(PID.TID 0000.0001)  MDSREADFIELD: opening global file: trenberth_taux.bin
(PID.TID 0000.0001)  MDSREADFIELD: opening global file: trenberth_tauy.bin
(PID.TID 0000.0001)  MDSREADFIELD: opening global file: trenberth_tauy.bin
(PID.TID 0000.0001)  MDSREADFIELD: opening global file: ncep_qnet.bin
(PID.TID 0000.0001)  MDSREADFIELD: opening global file: ncep_qnet.bin
(PID.TID 0000.0001)  MDSREADFIELD: opening global file: lev_sst.bin
(PID.TID 0000.0001)  MDSREADFIELD: opening global file: lev_sst.bin
(PID.TID 0000.0001)  MDSREADFIELD: opening global file: lev_sss.bin
(PID.TID 0000.0001)  MDSREADFIELD: opening global file: lev_sss.bin
time,SST,SSS,fu,fv,Q,E-P,i0,i1,a,b =   3.8880E+06 -5.3186E-01  3.4421E+01 -1.4435E-02 -1.7636E-02  2.4048E+02  0.0000E+00     2     3  0.0000E+00  1.0000E+00
time,fu0,fu1,fu =   3.8880E+06 -1.4435E-02 -2.7199E-02 -1.4435E-02  0.000000000000000E+00  1.000000000000000E+00
 cg2d: Sum(rhs),rhsMax =   4.92320073597341E-12  7.88464109388094E+00
time,SST,SSS,fu,fv,Q,E-P,i0,i1,a,b =   3.9312E+06 -5.2606E-01  3.4424E+01 -1.4647E-02 -1.7351E-02  2.4006E+02  0.0000E+00     2     3  1.6667E-02  9.8333E-01
time,fu0,fu1,fu =   3.9312E+06 -1.4435E-02 -2.7199E-02 -1.4647E-02  1.666666666666667E-02  9.833333333333333E-01
 cg2d: Sum(rhs),rhsMax =   4.38017677684144E-12  8.18557534346150E+00
time,SST,SSS,fu,fv,Q,E-P,i0,i1,a,b =   3.9744E+06 -5.2026E-01  3.4426E+01 -1.4860E-02 -1.7067E-02  2.3964E+02  0.0000E+00     2     3  3.3333E-02  9.6667E-01
time,fu0,fu1,fu =   3.9744E+06 -1.4435E-02 -2.7199E-02 -1.4860E-02  3.333333333333333E-02  9.666666666666667E-01
 cg2d: Sum(rhs),rhsMax =   3.83722220664851E-12  8.65937305071601E+00
time,SST,SSS,fu,fv,Q,E-P,i0,i1,a,b =   4.0176E+06 -5.1446E-01  3.4429E+01 -1.5073E-02 -1.6783E-02  2.3923E+02  0.0000E+00     2     3  5.0000E-02  9.5000E-01
time,fu0,fu1,fu =   4.0176E+06 -1.4435E-02 -2.7199E-02 -1.5073E-02  5.000000000000000E-02  9.500000000000000E-01
 cg2d: Sum(rhs),rhsMax =   3.32726901586256E-12  9.08149166257479E+00
time,SST,SSS,fu,fv,Q,E-P,i0,i1,a,b =   4.0608E+06 -5.0866E-01  3.4432E+01 -1.5286E-02 -1.6498E-02  2.3881E+02  0.0000E+00     2     3  6.6667E-02  9.3333E-01
time,fu0,fu1,fu =   4.0608E+06 -1.4435E-02 -2.7199E-02 -1.5286E-02  6.666666666666667E-02  9.333333333333333E-01
 cg2d: Sum(rhs),rhsMax =   2.87504048346321E-12  9.44424368550699E+00
time,SST,SSS,fu,fv,Q,E-P,i0,i1,a,b =   4.1040E+06 -5.0286E-01  3.4434E+01 -1.5498E-02 -1.6214E-02  2.3839E+02  0.0000E+00     2     3  8.3333E-02  9.1667E-01
time,fu0,fu1,fu =   4.1040E+06 -1.4435E-02 -2.7199E-02 -1.5498E-02  8.333333333333333E-02  9.166666666666666E-01
 cg2d: Sum(rhs),rhsMax =   3.86448512079696E-12  9.74175903868278E+00
time,SST,SSS,fu,fv,Q,E-P,i0,i1,a,b =   4.1472E+06 -4.9706E-01  3.4437E+01 -1.5711E-02 -1.5930E-02  2.3797E+02  0.0000E+00     2     3  1.0000E-01  9.0000E-01
time,fu0,fu1,fu =   4.1472E+06 -1.4435E-02 -2.7199E-02 -1.5711E-02  1.000000000000000E-01  9.000000000000000E-01
 cg2d: Sum(rhs),rhsMax =   3.28204130539689E-12  9.97004043776294E+00
time,SST,SSS,fu,fv,Q,E-P,i0,i1,a,b =   4.1904E+06 -4.9126E-01  3.4440E+01 -1.5924E-02 -1.5646E-02  2.3755E+02  0.0000E+00     2     3  1.1667E-01  8.8333E-01
time,fu0,fu1,fu =   4.1904E+06 -1.4435E-02 -2.7199E-02 -1.5924E-02  1.166666666666667E-01  8.833333333333333E-01
 cg2d: Sum(rhs),rhsMax =   2.38527947393763E-12  1.01269747114513E+01
time,SST,SSS,fu,fv,Q,E-P,i0,i1,a,b =   4.2336E+06 -4.8546E-01  3.4442E+01 -1.6137E-02 -1.5361E-02  2.3714E+02  0.0000E+00     2     3  1.3333E-01  8.6667E-01
time,fu0,fu1,fu =   4.2336E+06 -1.4435E-02 -2.7199E-02 -1.6137E-02  1.333333333333333E-01  8.666666666666667E-01
 cg2d: Sum(rhs),rhsMax =   3.10704934003425E-12  1.02123009543083E+01
time,SST,SSS,fu,fv,Q,E-P,i0,i1,a,b =   4.2768E+06 -4.7966E-01  3.4445E+01 -1.6349E-02 -1.5077E-02  2.3672E+02  0.0000E+00     2     3  1.5000E-01  8.5000E-01
time,fu0,fu1,fu =   4.2768E+06 -1.4435E-02 -2.7199E-02 -1.6349E-02  1.500000000000000E-01  8.500000000000000E-01
 cg2d: Sum(rhs),rhsMax =   2.64473165589862E-12  1.02275371354834E+01
time,SST,SSS,fu,fv,Q,E-P,i0,i1,a,b =   4.3200E+06 -4.7386E-01  3.4447E+01 -1.6562E-02 -1.4793E-02  2.3630E+02  0.0000E+00     2     3  1.6667E-01  8.3333E-01
time,fu0,fu1,fu =   4.3200E+06 -1.4435E-02 -2.7199E-02 -1.6562E-02  1.666666666666667E-01  8.333333333333334E-01
 cg2d: Sum(rhs),rhsMax =   2.58188609381094E-12  1.01758675494104E+01
time,SST,SSS,fu,fv,Q,E-P,i0,i1,a,b =   4.3632E+06 -4.6807E-01  3.4450E+01 -1.6775E-02 -1.4508E-02  2.3588E+02  0.0000E+00     2     3  1.8333E-01  8.1667E-01
time,fu0,fu1,fu =   4.3632E+06 -1.4435E-02 -2.7199E-02 -1.6775E-02  1.833333333333333E-01  8.166666666666667E-01
 cg2d: Sum(rhs),rhsMax =   2.54214704842326E-12  1.00619942772181E+01
time,SST,SSS,fu,fv,Q,E-P,i0,i1,a,b =   4.4064E+06 -4.6227E-01  3.4453E+01 -1.6988E-02 -1.4224E-02  2.3546E+02  0.0000E+00     2     3  2.0000E-01  8.0000E-01
time,fu0,fu1,fu =   4.4064E+06 -1.4435E-02 -2.7199E-02 -1.6988E-02  2.000000000000000E-01  8.000000000000000E-01
 cg2d: Sum(rhs),rhsMax =   2.39747111052679E-12  9.89195660371727E+00
time,SST,SSS,fu,fv,Q,E-P,i0,i1,a,b =   4.4496E+06 -4.5647E-01  3.4455E+01 -1.7200E-02 -1.3940E-02  2.3505E+02  0.0000E+00     2     3  2.1667E-01  7.8333E-01
time,fu0,fu1,fu =   4.4496E+06 -1.4435E-02 -2.7199E-02 -1.7200E-02  2.166666666666667E-01  7.833333333333333E-01
 cg2d: Sum(rhs),rhsMax =   2.28962682147227E-12  9.67292308179847E+00
time,SST,SSS,fu,fv,Q,E-P,i0,i1,a,b =   4.4928E+06 -4.5067E-01  3.4458E+01 -1.7413E-02 -1.3655E-02  2.3463E+02  0.0000E+00     2     3  2.3333E-01  7.6667E-01
time,fu0,fu1,fu =   4.4928E+06 -1.4435E-02 -2.7199E-02 -1.7413E-02  2.333333333333333E-01  7.666666666666666E-01
 cg2d: Sum(rhs),rhsMax =   2.52290549562773E-12  9.41296162690684E+00
time,SST,SSS,fu,fv,Q,E-P,i0,i1,a,b =   4.5360E+06 -4.4487E-01  3.4461E+01 -1.7626E-02 -1.3371E-02  2.3421E+02  0.0000E+00     2     3  2.5000E-01  7.5000E-01
time,fu0,fu1,fu =   4.5360E+06 -1.4435E-02 -2.7199E-02 -1.7626E-02  2.500000000000000E-01  7.500000000000000E-01
 cg2d: Sum(rhs),rhsMax =   2.79701262151377E-12  9.12079362518669E+00
time,SST,SSS,fu,fv,Q,E-P,i0,i1,a,b =   4.5792E+06 -4.3907E-01  3.4463E+01 -1.7838E-02 -1.3087E-02  2.3379E+02  0.0000E+00     2     3  2.6667E-01  7.3333E-01
time,fu0,fu1,fu =   4.5792E+06 -1.4435E-02 -2.7199E-02 -1.7838E-02  2.666666666666667E-01  7.333333333333334E-01
 cg2d: Sum(rhs),rhsMax =   2.53572857156215E-12  8.86256550945315E+00
time,SST,SSS,fu,fv,Q,E-P,i0,i1,a,b =   4.6224E+06 -4.3327E-01  3.4466E+01 -1.8051E-02 -1.2803E-02  2.3337E+02  0.0000E+00     2     3  2.8333E-01  7.1667E-01
time,fu0,fu1,fu =   4.6224E+06 -1.4435E-02 -2.7199E-02 -1.8051E-02  2.833333333333333E-01  7.166666666666667E-01
 cg2d: Sum(rhs),rhsMax =   2.51162979303388E-12  8.89641381890565E+00
time,SST,SSS,fu,fv,Q,E-P,i0,i1,a,b =   4.6656E+06 -4.2747E-01  3.4469E+01 -1.8264E-02 -1.2518E-02  2.3296E+02  0.0000E+00     2     3  3.0000E-01  7.0000E-01
time,fu0,fu1,fu =   4.6656E+06 -1.4435E-02 -2.7199E-02 -1.8264E-02  3.000000000000000E-01  7.000000000000000E-01
 cg2d: Sum(rhs),rhsMax =   2.65756167072695E-12  8.91497215947116E+00
time,SST,SSS,fu,fv,Q,E-P,i0,i1,a,b =   4.7088E+06 -4.2167E-01  3.4471E+01 -1.8477E-02 -1.2234E-02  2.3254E+02  0.0000E+00     2     3  3.1667E-01  6.8333E-01
time,fu0,fu1,fu =   4.7088E+06 -1.4435E-02 -2.7199E-02 -1.8477E-02  3.166666666666667E-01  6.833333333333333E-01
 cg2d: Sum(rhs),rhsMax =   2.54235521524038E-12  8.91793958262045E+00
time,SST,SSS,fu,fv,Q,E-P,i0,i1,a,b =   4.7520E+06 -4.1587E-01  3.4474E+01 -1.8689E-02 -1.1950E-02  2.3212E+02  0.0000E+00     2     3  3.3333E-01  6.6667E-01
time,fu0,fu1,fu =   4.7520E+06 -1.4435E-02 -2.7199E-02 -1.8689E-02  3.333333333333333E-01  6.666666666666667E-01
 cg2d: Sum(rhs),rhsMax =   2.52076831630532E-12  8.90561081599178E+00
time,SST,SSS,fu,fv,Q,E-P,i0,i1,a,b =   4.7952E+06 -4.1007E-01  3.4476E+01 -1.8902E-02 -1.1665E-02  2.3170E+02  0.0000E+00     2     3  3.5000E-01  6.5000E-01
time,fu0,fu1,fu =   4.7952E+06 -1.4435E-02 -2.7199E-02 -1.8902E-02  3.500000000000000E-01  6.500000000000000E-01
 cg2d: Sum(rhs),rhsMax =   2.62521254734693E-12  8.87885334570693E+00
time,SST,SSS,fu,fv,Q,E-P,i0,i1,a,b =   4.8384E+06 -4.0427E-01  3.4479E+01 -1.9115E-02 -1.1381E-02  2.3128E+02  0.0000E+00     2     3  3.6667E-01  6.3333E-01
time,fu0,fu1,fu =   4.8384E+06 -1.4435E-02 -2.7199E-02 -1.9115E-02  3.666666666666666E-01  6.333333333333333E-01
 cg2d: Sum(rhs),rhsMax =   2.62097288317165E-12  8.83905894786884E+00
time,SST,SSS,fu,fv,Q,E-P,i0,i1,a,b =   4.8816E+06 -3.9848E-01  3.4482E+01 -1.9328E-02 -1.1097E-02  2.3087E+02  0.0000E+00     2     3  3.8333E-01  6.1667E-01
time,fu0,fu1,fu =   4.8816E+06 -1.4435E-02 -2.7199E-02 -1.9328E-02  3.833333333333334E-01  6.166666666666667E-01
 cg2d: Sum(rhs),rhsMax =   2.63095101260546E-12  8.78807244480090E+00
time,SST,SSS,fu,fv,Q,E-P,i0,i1,a,b =   4.9248E+06 -3.9268E-01  3.4484E+01 -1.9540E-02 -1.0813E-02  2.3045E+02  0.0000E+00     2     3  4.0000E-01  6.0000E-01
time,fu0,fu1,fu =   4.9248E+06 -1.4435E-02 -2.7199E-02 -1.9540E-02  4.000000000000000E-01  6.000000000000000E-01
 cg2d: Sum(rhs),rhsMax =   2.09376960214058E-12  8.72810162265046E+00
time,SST,SSS,fu,fv,Q,E-P,i0,i1,a,b =   4.9680E+06 -3.8688E-01  3.4487E+01 -1.9753E-02 -1.0528E-02  2.3003E+02  0.0000E+00     2     3  4.1667E-01  5.8333E-01
time,fu0,fu1,fu =   4.9680E+06 -1.4435E-02 -2.7199E-02 -1.9753E-02  4.166666666666667E-01  5.833333333333333E-01
 cg2d: Sum(rhs),rhsMax =   2.27073221337193E-12  8.66161330213223E+00
time,SST,SSS,fu,fv,Q,E-P,i0,i1,a,b =   5.0112E+06 -3.8108E-01  3.4490E+01 -1.9966E-02 -1.0244E-02  2.2961E+02  0.0000E+00     2     3  4.3333E-01  5.6667E-01
time,fu0,fu1,fu =   5.0112E+06 -1.4435E-02 -2.7199E-02 -1.9966E-02  4.333333333333333E-01  5.666666666666667E-01
 cg2d: Sum(rhs),rhsMax =   2.62680155405093E-12  8.59122120796484E+00
time,SST,SSS,fu,fv,Q,E-P,i0,i1,a,b =   5.0544E+06 -3.7528E-01  3.4492E+01 -2.0179E-02 -9.9597E-03  2.2919E+02  0.0000E+00     2     3  4.5000E-01  5.5000E-01
time,fu0,fu1,fu =   5.0544E+06 -1.4435E-02 -2.7199E-02 -2.0179E-02  4.500000000000000E-01  5.500000000000000E-01
 cg2d: Sum(rhs),rhsMax =   2.30440666548759E-12  8.77527693524392E+00
time,SST,SSS,fu,fv,Q,E-P,i0,i1,a,b =   5.0976E+06 -3.6948E-01  3.4495E+01 -2.0391E-02 -9.6754E-03  2.2877E+02  0.0000E+00     2     3  4.6667E-01  5.3333E-01
time,fu0,fu1,fu =   5.0976E+06 -1.4435E-02 -2.7199E-02 -2.0391E-02  4.666666666666667E-01  5.333333333333333E-01
 cg2d: Sum(rhs),rhsMax =   1.56114010607666E-12  9.00166247662779E+00
time,SST,SSS,fu,fv,Q,E-P,i0,i1,a,b =   5.1408E+06 -3.6368E-01  3.4497E+01 -2.0604E-02 -9.3911E-03  2.2836E+02  0.0000E+00     2     3  4.8333E-01  5.1667E-01
time,fu0,fu1,fu =   5.1408E+06 -1.4435E-02 -2.7199E-02 -2.0604E-02  4.833333333333333E-01  5.166666666666666E-01
 cg2d: Sum(rhs),rhsMax =   2.49643361538432E-12  9.15305723763295E+00
 --> objf_test(bi,bj)   =  0.000000000000000E+00
 --> objf_tracer(bi,bj) =  0.000000000000000E+00
 --> objf_atl(bi,bj)    = -0.114865701821792E+00
  local fc = -0.114865701821792E+00
 global fc = -0.114865701821792E+00
(PID.TID 0000.0001)  MDSREADFIELD: opening file: xx_theta.0000000000.001.001.data
 grad-res -------------------------------
 grad-res     0    2   44    2    1   -.114865705E+00 -.114865709E+00 -.114865702E+00
 grad-res     0    2    2    2 2315   -.341554989E-06 -.341559141E-06 -.121566537E-04
(PID.TID 0000.0001)       precision_grdchk_result ADM    -1.14865705235558E-01    -3.41554988527273E-07
 ph-grd  ierr ---------------------------
 ph-grd  ierr =  0, icomp =  2, ichknum =  2
(PID.TID 0000.0001) 
(PID.TID 0000.0001) // =======================================================
(PID.TID 0000.0001) // Gradient check results  >>> START <<<
(PID.TID 0000.0001) // =======================================================
(PID.TID 0000.0001) 
(PID.TID 0000.0001) 
(PID.TID 0000.0001)  EPS =  0.100E-01
(PID.TID 0000.0001) grdchk output:            procId               I        ITILEPOS        JTILEPOS           LAYER            X(I)      X(I)+/-EPS
(PID.TID 0000.0001) grdchk output:                                FC             FC1             FC2 FC1-FC2/(2*EPS)    ADJ GRAD(FC)   1-FDGRD/ADGRD
(PID.TID 0000.0001) grdchk output:                 0               1              43               2               1 0.000000000E+00 -.100000000E-01
(PID.TID 0000.0001) grdchk output:                   -.114865705E+00 -.114865709E+00 -.114865702E+00 -.326971034E-06 -.326970089E-06 -.289212748E-05
(PID.TID 0000.0001) 
(PID.TID 0000.0001) grdchk output:                 0               2              44               2               1 0.000000000E+00 -.100000000E-01
(PID.TID 0000.0001) grdchk output:                   -.114865705E+00 -.114865709E+00 -.114865702E+00 -.341559141E-06 -.341554989E-06 -.121566537E-04
(PID.TID 0000.0001) 
(PID.TID 0000.0001) 
(PID.TID 0000.0001) // =======================================================
(PID.TID 0000.0001) // Gradient check results  >>> END <<<
(PID.TID 0000.0001) // =======================================================
(PID.TID 0000.0001) 
(PID.TID 0000.0001) %CHECKPOINT         0 ckptA
(PID.TID 0000.0001)   Seconds in section "ALL                    [THE_MODEL_MAIN]":
(PID.TID 0000.0001)           User time:  1004.39033
(PID.TID 0000.0001)         System time:  4.79627115
(PID.TID 0000.0001)     Wall clock time:  1027.78767
(PID.TID 0000.0001)          No. starts: 1
(PID.TID 0000.0001)           No. stops: 1
(PID.TID 0000.0001)   Seconds in section "INITIALISE_FIXED       [THE_MODEL_MAIN]":
(PID.TID 0000.0001)           User time:  1.66174795
(PID.TID 0000.0001)         System time:  0.126980998
(PID.TID 0000.0001)     Wall clock time:  1.83948398
(PID.TID 0000.0001)          No. starts: 1
(PID.TID 0000.0001)           No. stops: 1
(PID.TID 0000.0001)   Seconds in section "ADTHE_MAIN_LOOP          [ADJOINT RUN]":
(PID.TID 0000.0001)           User time:  578.476085
(PID.TID 0000.0001)         System time:  4.18636283
(PID.TID 0000.0001)     Wall clock time:  600.35975
(PID.TID 0000.0001)          No. starts: 1
(PID.TID 0000.0001)           No. stops: 1
(PID.TID 0000.0001)   Seconds in section "LOAD_FIELDS_DRIVER  [FORWARD_STEP]":
(PID.TID 0000.0001)           User time:  0.690021038
(PID.TID 0000.0001)         System time:  0.0369978994
(PID.TID 0000.0001)     Wall clock time:  1.01551223
(PID.TID 0000.0001)          No. starts: 720
(PID.TID 0000.0001)           No. stops: 720
(PID.TID 0000.0001)   Seconds in section "EXTERNAL_FLDS_LOAD [LOAD_FLDS_DRIVER]":
(PID.TID 0000.0001)           User time:  0.759072304
(PID.TID 0000.0001)         System time:  0.0439981073
(PID.TID 0000.0001)     Wall clock time:  1.28020906
(PID.TID 0000.0001)          No. starts: 840
(PID.TID 0000.0001)           No. stops: 840
(PID.TID 0000.0001)   Seconds in section "I/O (WRITE)        [ADJOINT LOOP]":
(PID.TID 0000.0001)           User time:  2.02668047
(PID.TID 0000.0001)         System time:  0.604908317
(PID.TID 0000.0001)     Wall clock time:  2.70797133
(PID.TID 0000.0001)          No. starts: 1320
(PID.TID 0000.0001)           No. stops: 1320
(PID.TID 0000.0001)   Seconds in section "DO_ATMOSPHERIC_PHYS [FORWARD_STEP]":
(PID.TID 0000.0001)           User time:  0.0271492004
(PID.TID 0000.0001)         System time:  0.00199994445
(PID.TID 0000.0001)     Wall clock time:  0.0248191357
(PID.TID 0000.0001)          No. starts: 720
(PID.TID 0000.0001)           No. stops: 720
(PID.TID 0000.0001)   Seconds in section "DO_OCEANIC_PHYS     [FORWARD_STEP]":
(PID.TID 0000.0001)           User time:  169.912349
(PID.TID 0000.0001)         System time:  0.117975339
(PID.TID 0000.0001)     Wall clock time:  170.512043
(PID.TID 0000.0001)          No. starts: 720
(PID.TID 0000.0001)           No. stops: 720
(PID.TID 0000.0001)   Seconds in section "THERMODYNAMICS      [FORWARD_STEP]":
(PID.TID 0000.0001)           User time:  183.747987
(PID.TID 0000.0001)         System time:  0.1119802
(PID.TID 0000.0001)     Wall clock time:  184.412363
(PID.TID 0000.0001)          No. starts: 720
(PID.TID 0000.0001)           No. stops: 720
(PID.TID 0000.0001)   Seconds in section "DYNAMICS            [FORWARD_STEP]":
(PID.TID 0000.0001)           User time:  225.236952
(PID.TID 0000.0001)         System time:  0.259966463
(PID.TID 0000.0001)     Wall clock time:  226.095123
(PID.TID 0000.0001)          No. starts: 720
(PID.TID 0000.0001)           No. stops: 720
(PID.TID 0000.0001)   Seconds in section "SOLVE_FOR_PRESSURE  [FORWARD_STEP]":
(PID.TID 0000.0001)           User time:  35.1164722
(PID.TID 0000.0001)         System time:  0.0219959021
(PID.TID 0000.0001)     Wall clock time:  35.1919889
(PID.TID 0000.0001)          No. starts: 720
(PID.TID 0000.0001)           No. stops: 720
(PID.TID 0000.0001)   Seconds in section "MOM_CORRECTION_STEP [FORWARD_STEP]":
(PID.TID 0000.0001)           User time:  8.61108351
(PID.TID 0000.0001)         System time:  0.0119965971
(PID.TID 0000.0001)     Wall clock time:  8.66674709
(PID.TID 0000.0001)          No. starts: 720
(PID.TID 0000.0001)           No. stops: 720
(PID.TID 0000.0001)   Seconds in section "TRC_CORRECTION_STEP [FORWARD_STEP]":
(PID.TID 0000.0001)           User time:  2.40951586
(PID.TID 0000.0001)         System time:  0.00899934769
(PID.TID 0000.0001)     Wall clock time:  2.44895625
(PID.TID 0000.0001)          No. starts: 720
(PID.TID 0000.0001)           No. stops: 720
(PID.TID 0000.0001)   Seconds in section "BLOCKING_EXCHANGES  [FORWARD_STEP]":
(PID.TID 0000.0001)           User time:  4.29232836
(PID.TID 0000.0001)         System time:  0.00899922848
(PID.TID 0000.0001)     Wall clock time:  4.31200719
(PID.TID 0000.0001)          No. starts: 720
(PID.TID 0000.0001)           No. stops: 720
(PID.TID 0000.0001)   Seconds in section "MONITOR             [FORWARD_STEP]":
(PID.TID 0000.0001)           User time:  11.4484606
(PID.TID 0000.0001)         System time:  0.0239937901
(PID.TID 0000.0001)     Wall clock time:  11.4673104
(PID.TID 0000.0001)          No. starts: 720
(PID.TID 0000.0001)           No. stops: 720
(PID.TID 0000.0001)   Seconds in section "COST_TILE           [FORWARD_STEP]":
(PID.TID 0000.0001)           User time:  2.37991333
(PID.TID 0000.0001)         System time:  0.0079985857
(PID.TID 0000.0001)     Wall clock time:  2.3875072
(PID.TID 0000.0001)          No. starts: 720
(PID.TID 0000.0001)           No. stops: 720
(PID.TID 0000.0001)   Seconds in section "DO_THE_MODEL_IO     [FORWARD_STEP]":
(PID.TID 0000.0001)           User time:  0.821802139
(PID.TID 0000.0001)         System time:  0.0809879303
(PID.TID 0000.0001)     Wall clock time:  1.01465154
(PID.TID 0000.0001)          No. starts: 720
(PID.TID 0000.0001)           No. stops: 720
(PID.TID 0000.0001)   Seconds in section "DO_WRITE_PICKUP     [FORWARD_STEP]":
(PID.TID 0000.0001)           User time:  0.0239725113
(PID.TID 0000.0001)         System time:  0.003000319
(PID.TID 0000.0001)     Wall clock time:  0.0255174637
(PID.TID 0000.0001)          No. starts: 720
(PID.TID 0000.0001)           No. stops: 720
(PID.TID 0000.0001)   Seconds in section "CTRL_PACK           [THE_MODEL_MAIN]":
(PID.TID 0000.0001)           User time:  0.178955078
(PID.TID 0000.0001)         System time:  0.0269961357
(PID.TID 0000.0001)     Wall clock time:  0.266837835
(PID.TID 0000.0001)          No. starts: 1
(PID.TID 0000.0001)           No. stops: 1
(PID.TID 0000.0001)   Seconds in section "CTRL_PACK     [THE_MODEL_MAIN]":
(PID.TID 0000.0001)           User time:  0.195983887
(PID.TID 0000.0001)         System time:  0.00499916077
(PID.TID 0000.0001)     Wall clock time:  0.212649107
(PID.TID 0000.0001)          No. starts: 1
(PID.TID 0000.0001)           No. stops: 1
(PID.TID 0000.0001)   Seconds in section "GRDCHK_MAIN         [THE_MODEL_MAIN]":
(PID.TID 0000.0001)           User time:  423.722534
(PID.TID 0000.0001)         System time:  0.379942894
(PID.TID 0000.0001)     Wall clock time:  424.862807
(PID.TID 0000.0001)          No. starts: 1
(PID.TID 0000.0001)           No. stops: 1
(PID.TID 0000.0001)   Seconds in section "ADJOINT SPIN-UP":
(PID.TID 0000.0001)           User time:  1.10681152
(PID.TID 0000.0001)         System time:  0.0389924049
(PID.TID 0000.0001)     Wall clock time:  1.21558309
(PID.TID 0000.0001)          No. starts: 4
(PID.TID 0000.0001)           No. stops: 4
(PID.TID 0000.0001)   Seconds in section "INITIALISE_VARIA    [THE_MAIN_LOOP]":
(PID.TID 0000.0001)           User time:  0.852905273
(PID.TID 0000.0001)         System time:  0.0149960518
(PID.TID 0000.0001)     Wall clock time:  0.894653082
(PID.TID 0000.0001)          No. starts: 4
(PID.TID 0000.0001)           No. stops: 4
(PID.TID 0000.0001)   Seconds in section "MAIN LOOP           [THE_MAIN_LOOP]":
(PID.TID 0000.0001)           User time:  422.353821
(PID.TID 0000.0001)         System time:  0.276959419
(PID.TID 0000.0001)     Wall clock time:  423.285267
(PID.TID 0000.0001)          No. starts: 4
(PID.TID 0000.0001)           No. stops: 4
(PID.TID 0000.0001)   Seconds in section "FORWARD_STEP        [THE_MAIN_LOOP]":
(PID.TID 0000.0001)           User time:  422.327881
(PID.TID 0000.0001)         System time:  0.274960518
(PID.TID 0000.0001)     Wall clock time:  423.266677
(PID.TID 0000.0001)          No. starts: 480
(PID.TID 0000.0001)           No. stops: 480
(PID.TID 0000.0001)   Seconds in section "COST_FINAL           [THE_MAIN_LOOP]":
(PID.TID 0000.0001)           User time:  0.00103759766
(PID.TID 0000.0001)         System time:  0.
(PID.TID 0000.0001)     Wall clock time:  0.000686645508
(PID.TID 0000.0001)          No. starts: 4
(PID.TID 0000.0001)           No. stops: 4
(PID.TID 0000.0001)   Seconds in section "DO_WRITE_PICKUP        [THE_MODEL_MAIN]":
(PID.TID 0000.0001)           User time:  0.155029297
(PID.TID 0000.0001)         System time:  0.0709891319
(PID.TID 0000.0001)     Wall clock time:  0.245815992
(PID.TID 0000.0001)          No. starts: 1
(PID.TID 0000.0001)           No. stops: 1
(PID.TID 0000.0001) // ======================================================
(PID.TID 0000.0001) // Tile <-> Tile communication statistics
(PID.TID 0000.0001) // ======================================================
(PID.TID 0000.0001) // o Tile number: 000001
(PID.TID 0000.0001) //         No. X exchanges =              0
(PID.TID 0000.0001) //            Max. X spins =              0
(PID.TID 0000.0001) //            Min. X spins =     1000000000
(PID.TID 0000.0001) //          Total. X spins =              0
(PID.TID 0000.0001) //            Avg. X spins =       0.00E+00
(PID.TID 0000.0001) //         No. Y exchanges =              0
(PID.TID 0000.0001) //            Max. Y spins =              0
(PID.TID 0000.0001) //            Min. Y spins =     1000000000
(PID.TID 0000.0001) //          Total. Y spins =              0
(PID.TID 0000.0001) //            Avg. Y spins =       0.00E+00
(PID.TID 0000.0001) // o Thread number: 000001
(PID.TID 0000.0001) //            No. barriers =         404860
(PID.TID 0000.0001) //      Max. barrier spins =              1
(PID.TID 0000.0001) //      Min. barrier spins =              1
(PID.TID 0000.0001) //     Total barrier spins =         404860
(PID.TID 0000.0001) //      Avg. barrier spins =       1.00E+00
