(PID.TID 0000.0001) 
(PID.TID 0000.0001) // ======================================================
(PID.TID 0000.0001) //                      MITgcm UV
(PID.TID 0000.0001) //                      =========
(PID.TID 0000.0001) // ======================================================
(PID.TID 0000.0001) // execution environment starting up...
(PID.TID 0000.0001) 
(PID.TID 0000.0001) // MITgcmUV version:  checkpoint59m
(PID.TID 0000.0001) // Build user:        dfer
(PID.TID 0000.0001) // Build host:        faulks
(PID.TID 0000.0001) // Build date:        Fri Feb  8 11:23:01 EST 2008
(PID.TID 0000.0001) 
(PID.TID 0000.0001) // =======================================================
(PID.TID 0000.0001) // Execution Environment parameter file "eedata"
(PID.TID 0000.0001) // =======================================================
(PID.TID 0000.0001) ># Example "eedata" file
(PID.TID 0000.0001) ># Lines beginning "#" are comments
(PID.TID 0000.0001) ># nTx - No. threads per process in X
(PID.TID 0000.0001) ># nTy - No. threads per process in Y
(PID.TID 0000.0001) > &EEPARMS
(PID.TID 0000.0001) > nTx=1,
(PID.TID 0000.0001) > nTy=1,
(PID.TID 0000.0001) > &
(PID.TID 0000.0001) ># Note: Some systems use & as the
(PID.TID 0000.0001) ># namelist terminator. Other systems
(PID.TID 0000.0001) ># use a / character (as shown here).
(PID.TID 0000.0001) 
(PID.TID 0000.0001) // =======================================================
(PID.TID 0000.0001) // Computational Grid Specification ( see files "SIZE.h" )
(PID.TID 0000.0001) //                                  ( and "eedata"       )
(PID.TID 0000.0001) // =======================================================
(PID.TID 0000.0001)      nPx =    1 ; /* No. processes in X */
(PID.TID 0000.0001)      nPy =    1 ; /* No. processes in Y */
(PID.TID 0000.0001)      nSx =    1 ; /* No. tiles in X per process */
(PID.TID 0000.0001)      nSy =    1 ; /* No. tiles in Y per process */
(PID.TID 0000.0001)      sNx =   90 ; /* Tile size in X */
(PID.TID 0000.0001)      sNy =   40 ; /* Tile size in Y */
(PID.TID 0000.0001)      OLx =    2 ; /* Tile overlap distance in X */
(PID.TID 0000.0001)      OLy =    2 ; /* Tile overlap distance in Y */
(PID.TID 0000.0001)      nTx =    1 ; /* No. threads in X per process */
(PID.TID 0000.0001)      nTy =    1 ; /* No. threads in Y per process */
(PID.TID 0000.0001)       Nr =   15 ; /* No. levels in the vertical   */
(PID.TID 0000.0001)       nX =   90 ; /* Total domain size in X ( = nPx*nSx*sNx ) */
(PID.TID 0000.0001)       nY =   40 ; /* Total domain size in Y ( = nPy*nSy*sNy ) */
(PID.TID 0000.0001)   nTiles =    1 ; /* Total no. tiles per process ( = nSx*nSy ) */
(PID.TID 0000.0001)   nProcs =    1 ; /* Total no. processes ( = nPx*nPy ) */
(PID.TID 0000.0001) nThreads =    1 ; /* Total no. threads per process ( = nTx*nTy ) */
(PID.TID 0000.0001) usingMPI =    F ; /* Flag used to control whether MPI is in use */
(PID.TID 0000.0001)                   /*  note: To execute a program with MPI calls */
(PID.TID 0000.0001)                   /*  it must be launched appropriately e.g     */
(PID.TID 0000.0001)                   /*  "mpirun -np 64 ......"                    */
(PID.TID 0000.0001) useCoupler=   F ; /* Flag used to control communications with */
(PID.TID 0000.0001)                   /*  other model components, through a coupler */
(PID.TID 0000.0001) 
(PID.TID 0000.0001) // ======================================================
(PID.TID 0000.0001) // Mapping of tiles to threads
(PID.TID 0000.0001) // ======================================================
(PID.TID 0000.0001) // -o- Thread   1, tiles (   1:   1,   1:   1)
(PID.TID 0000.0001) 
(PID.TID 0000.0001) // ======================================================
(PID.TID 0000.0001) // Tile <-> Tile connectvity table
(PID.TID 0000.0001) // ======================================================
(PID.TID 0000.0001) // Tile number: 000001 (process no. = 000001)
(PID.TID 0000.0001) //        WEST: Tile = 000001, Process = 000001, Comm = put
(PID.TID 0000.0001) //                bi = 000001, bj = 000001
(PID.TID 0000.0001) //        EAST: Tile = 000001, Process = 000001, Comm = put
(PID.TID 0000.0001) //                bi = 000001, bj = 000001
(PID.TID 0000.0001) //       SOUTH: Tile = 000001, Process = 000001, Comm = put
(PID.TID 0000.0001) //                bi = 000001, bj = 000001
(PID.TID 0000.0001) //       NORTH: Tile = 000001, Process = 000001, Comm = put
(PID.TID 0000.0001) //                bi = 000001, bj = 000001
(PID.TID 0000.0001) 
(PID.TID 0000.0001) // =======================================================
(PID.TID 0000.0001) // Model parameter file "data"
(PID.TID 0000.0001) // =======================================================
(PID.TID 0000.0001) ># ====================
(PID.TID 0000.0001) ># | Model parameters |
(PID.TID 0000.0001) ># ====================
(PID.TID 0000.0001) >#
(PID.TID 0000.0001) ># Continuous equation parameters
(PID.TID 0000.0001) > &PARM01
(PID.TID 0000.0001) > tRef = 15*20.,
(PID.TID 0000.0001) > sRef = 15*35.,
(PID.TID 0000.0001) > viscAr=1.E-3,
(PID.TID 0000.0001) > viscAh=5.E5,
(PID.TID 0000.0001) > diffKhT=0.,
(PID.TID 0000.0001) > diffKrT=3.E-5,
(PID.TID 0000.0001) > diffKhS=0.,
(PID.TID 0000.0001) > diffKrS=3.E-5,
(PID.TID 0000.0001) > rhonil=1035.,
(PID.TID 0000.0001) > rhoConstFresh=1000.,
(PID.TID 0000.0001) > eosType = 'JMD95Z',
(PID.TID 0000.0001) > ivdc_kappa=100.,
(PID.TID 0000.0001) > implicitDiffusion=.TRUE.,
(PID.TID 0000.0001) > allowFreezing=.TRUE.,
(PID.TID 0000.0001) > exactConserv=.TRUE.,
(PID.TID 0000.0001) > useRealFreshWaterFlux=.TRUE.,
(PID.TID 0000.0001) > useCDscheme=.TRUE.,
(PID.TID 0000.0001) ># turn on looped cells
(PID.TID 0000.0001) > hFacMin=.05,
(PID.TID 0000.0001) > hFacMindr=50.,
(PID.TID 0000.0001) ># set precision of data files
(PID.TID 0000.0001) > readBinaryPrec=32,
(PID.TID 0000.0001) > &
(PID.TID 0000.0001) >
(PID.TID 0000.0001) ># Elliptic solver parameters
(PID.TID 0000.0001) > &PARM02
(PID.TID 0000.0001) > cg2dMaxIters=500,
(PID.TID 0000.0001) > cg2dTargetResidual=1.E-19,
(PID.TID 0000.0001) > &
(PID.TID 0000.0001) >
(PID.TID 0000.0001) ># Time stepping parameters
(PID.TID 0000.0001) > &PARM03
(PID.TID 0000.0001) > nIter0=       0,
(PID.TID 0000.0001) >#nTimeSteps = 360,
(PID.TID 0000.0001) > nTimeSteps = 10,
(PID.TID 0000.0001) > deltaTmom = 1800.,
(PID.TID 0000.0001) > tauCD =     321428.,
(PID.TID 0000.0001) > deltaTtracer= 86400.,
(PID.TID 0000.0001) > deltaTClock = 86400.,
(PID.TID 0000.0001) > deltaTfreesurf= 86400.,
(PID.TID 0000.0001) > abEps = 0.1,
(PID.TID 0000.0001) > pChkptFreq= 2592000.,
(PID.TID 0000.0001) > dumpFreq=   2592000.,
(PID.TID 0000.0001) > taveFreq=   2592000.,
(PID.TID 0000.0001) > monitorFreq=1.,
(PID.TID 0000.0001) ># 2 months restoring timescale for temperature
(PID.TID 0000.0001) >#tauThetaClimRelax=  5184000.,
(PID.TID 0000.0001) ># 6 months restoring timescale for salinity
(PID.TID 0000.0001) > tauSaltClimRelax = 15552000.,
(PID.TID 0000.0001) > periodicExternalForcing=.TRUE.,
(PID.TID 0000.0001) > externForcingPeriod=2592000.,
(PID.TID 0000.0001) > externForcingCycle=31104000.,
(PID.TID 0000.0001) > &
(PID.TID 0000.0001) >
(PID.TID 0000.0001) ># Gridding parameters
(PID.TID 0000.0001) > &PARM04
(PID.TID 0000.0001) > usingSphericalPolarGrid=.TRUE.,
(PID.TID 0000.0001) > delR= 50.,  70., 100., 140., 190.,
(PID.TID 0000.0001) >      240., 290., 340., 390., 440.,
(PID.TID 0000.0001) >      490., 540., 590., 640., 690.,
(PID.TID 0000.0001) > phiMin=-80.,
(PID.TID 0000.0001) > dySpacing=4.,
(PID.TID 0000.0001) > dxSpacing=4.,
(PID.TID 0000.0001) > &
(PID.TID 0000.0001) >
(PID.TID 0000.0001) ># Input datasets
(PID.TID 0000.0001) > &PARM05
(PID.TID 0000.0001) > bathyFile=      'bathymetry.bin',
(PID.TID 0000.0001) > hydrogThetaFile='lev_t.bin',
(PID.TID 0000.0001) > hydrogSaltFile= 'lev_s.bin',
(PID.TID 0000.0001) > zonalWindFile=  'trenberth_taux.bin',
(PID.TID 0000.0001) > meridWindFile=  'trenberth_tauy.bin',
(PID.TID 0000.0001) > thetaClimFile=  'lev_sst.bin',
(PID.TID 0000.0001) > saltClimFile=   'lev_sss.bin',
(PID.TID 0000.0001) > surfQFile=      'ncep_qnet.bin',
(PID.TID 0000.0001) ># fresh water flux is turned off, uncomment next line to turn on
(PID.TID 0000.0001) ># (not recommened together with surface salinity restoring)
(PID.TID 0000.0001) ># EmPmRFile=      'ncep_emp.bin',
(PID.TID 0000.0001) > &
(PID.TID 0000.0001) 
(PID.TID 0000.0001) S/R INI_PARMS ; starts to read PARM01
(PID.TID 0000.0001) S/R INI_PARMS ; read PARM01 : OK
(PID.TID 0000.0001) S/R INI_PARMS: No request for barotropic solver
(PID.TID 0000.0001) S/R INI_PARMS: => Use implicitFreeSurface as default
(PID.TID 0000.0001) S/R INI_PARMS ; starts to read PARM02
(PID.TID 0000.0001) S/R INI_PARMS ; read PARM02 : OK
(PID.TID 0000.0001) S/R INI_PARMS ; starts to read PARM03
(PID.TID 0000.0001) S/R INI_PARMS ; read PARM03 : OK
(PID.TID 0000.0001) S/R INI_PARMS ; starts to read PARM04
(PID.TID 0000.0001) S/R INI_PARMS ; read PARM04 : OK
(PID.TID 0000.0001) S/R INI_PARMS ; starts to read PARM05
(PID.TID 0000.0001) S/R INI_PARMS ; read PARM05 : OK
(PID.TID 0000.0001)  PACKAGES_BOOT: opening data.pkg
(PID.TID 0000.0001)  OPEN_COPY_DATA_FILE: opening file data.pkg
(PID.TID 0000.0001) // =======================================================
(PID.TID 0000.0001) // Parameter file "data.pkg"
(PID.TID 0000.0001) // =======================================================
(PID.TID 0000.0001) >#
(PID.TID 0000.0001) ># ********
(PID.TID 0000.0001) ># Packages
(PID.TID 0000.0001) ># ********
(PID.TID 0000.0001) > &PACKAGES
(PID.TID 0000.0001) > useGMRedi    = .TRUE.,
(PID.TID 0000.0001) > useGrdchk    = .TRUE.,
(PID.TID 0000.0001) > &
(PID.TID 0000.0001) 
(PID.TID 0000.0001)  PACKAGES_BOOT: finished reading data.pkg
(PID.TID 0000.0001)  GM_READPARMS: opening data.gmredi
(PID.TID 0000.0001)  OPEN_COPY_DATA_FILE: opening file data.gmredi
(PID.TID 0000.0001) // =======================================================
(PID.TID 0000.0001) // Parameter file "data.gmredi"
(PID.TID 0000.0001) // =======================================================
(PID.TID 0000.0001) ># GM+Redi package parameters:
(PID.TID 0000.0001) >#     GM_Small_Number  :: epsilon used in computing the slope
(PID.TID 0000.0001) >#     GM_slopeSqCutoff :: slope^2 cut-off value
(PID.TID 0000.0001) >
(PID.TID 0000.0001) >#-from MOM :
(PID.TID 0000.0001) ># GM_background_K: 	G & Mc.W  diffusion coefficient
(PID.TID 0000.0001) ># GM_maxSlope    :	max slope of isopycnals
(PID.TID 0000.0001) ># GM_Scrit       :	transition for scaling diffusion coefficient
(PID.TID 0000.0001) ># GM_Sd          :	half width scaling for diffusion coefficient
(PID.TID 0000.0001) ># GM_taper_scheme:	slope clipping or one of the tapering schemes
(PID.TID 0000.0001) ># GM_Kmin_horiz  :	horizontal diffusion minimum value
(PID.TID 0000.0001) >
(PID.TID 0000.0001) >#-Option parameters (needs to "define" options in GMREDI_OPTIONS.h")
(PID.TID 0000.0001) ># GM_isopycK     :	isopycnal diffusion coefficient (default=GM_background_K)
(PID.TID 0000.0001) ># GM_AdvForm     :	turn on GM Advective form       (default=Skew flux form)
(PID.TID 0000.0001) >
(PID.TID 0000.0001) > &GM_PARM01
(PID.TID 0000.0001) >  GM_Small_Number  = 1.D-20,
(PID.TID 0000.0001) >  GM_slopeSqCutoff = 1.D+08,
(PID.TID 0000.0001) >  GM_background_K    = 1.e+3,
(PID.TID 0000.0001) >  GM_taper_scheme    = 'dm95',
(PID.TID 0000.0001) >  GM_maxSlope        = 1.e-2,
(PID.TID 0000.0001) >  GM_Kmin_horiz      = 50.,
(PID.TID 0000.0001) >  GM_Scrit           = 4.e-3,
(PID.TID 0000.0001) >  GM_Sd              = 1.e-3,
(PID.TID 0000.0001) ># GM_Visbeck_alpha   = 0.,
(PID.TID 0000.0001) ># GM_Visbeck_length  = 2.e+5,
(PID.TID 0000.0001) ># GM_Visbeck_depth   = 1.e+3,
(PID.TID 0000.0001) ># GM_Visbeck_maxval_K= 2.5e+3,
(PID.TID 0000.0001) > &
(PID.TID 0000.0001) >
(PID.TID 0000.0001) >
(PID.TID 0000.0001) 
(PID.TID 0000.0001)  GM_READPARMS: finished reading data.gmredi
(PID.TID 0000.0001) OPTIM_READPARMS: opening data.optim
(PID.TID 0000.0001)  OPEN_COPY_DATA_FILE: opening file data.optim
(PID.TID 0000.0001) // =======================================================
(PID.TID 0000.0001) // Parameter file "data.optim"
(PID.TID 0000.0001) // =======================================================
(PID.TID 0000.0001) >#
(PID.TID 0000.0001) ># ********************************
(PID.TID 0000.0001) ># Off-line optimization parameters
(PID.TID 0000.0001) ># ********************************
(PID.TID 0000.0001) > &OPTIM
(PID.TID 0000.0001) > optimcycle=0,
(PID.TID 0000.0001) > numiter=1,
(PID.TID 0000.0001) > nfunc=3,
(PID.TID 0000.0001) > fmin=5.74,
(PID.TID 0000.0001) > iprint=10,
(PID.TID 0000.0001) > nupdate=8,
(PID.TID 0000.0001) > &
(PID.TID 0000.0001) 
(PID.TID 0000.0001) OPTIM_READPARMS: finished reading data.optim
(PID.TID 0000.0001) CTRL_READPARMS: opening data.ctrl
(PID.TID 0000.0001)  OPEN_COPY_DATA_FILE: opening file data.ctrl
(PID.TID 0000.0001) // =======================================================
(PID.TID 0000.0001) // Parameter file "data.ctrl"
(PID.TID 0000.0001) // =======================================================
(PID.TID 0000.0001) >#
(PID.TID 0000.0001) >#
(PID.TID 0000.0001) ># *********************
(PID.TID 0000.0001) ># ECCO controlvariables
(PID.TID 0000.0001) ># *********************
(PID.TID 0000.0001) > &CTRL_NML
(PID.TID 0000.0001) > xx_hfluxm_file      = 'xx_hfluxm',
(PID.TID 0000.0001) > &
(PID.TID 0000.0001) >#
(PID.TID 0000.0001) ># *********************
(PID.TID 0000.0001) ># names for ctrl_pack/unpack
(PID.TID 0000.0001) ># *********************
(PID.TID 0000.0001) > &CTRL_PACKNAMES
(PID.TID 0000.0001) > yctrlid  = 'tut_MITgcm',
(PID.TID 0000.0001) > ctrlname = 'ctrlhflux',
(PID.TID 0000.0001) > costname = 'costhflux',
(PID.TID 0000.0001) > &
(PID.TID 0000.0001) >
(PID.TID 0000.0001) 
(PID.TID 0000.0001) CTRL_READPARMS: finished reading data.ctrl
(PID.TID 0000.0001) COST_READPARMS: opening data.cost
(PID.TID 0000.0001)  OPEN_COPY_DATA_FILE: opening file data.cost
(PID.TID 0000.0001) // =======================================================
(PID.TID 0000.0001) // Parameter file "data.cost"
(PID.TID 0000.0001) // =======================================================
(PID.TID 0000.0001) >#
(PID.TID 0000.0001) >#
(PID.TID 0000.0001) ># ******************
(PID.TID 0000.0001) ># ECCO cost function
(PID.TID 0000.0001) ># ******************
(PID.TID 0000.0001) > &COST_NML
(PID.TID 0000.0001) >#
(PID.TID 0000.0001) > mult_temp_tut  = 1.,
(PID.TID 0000.0001) > mult_hflux_tut = 2.,
(PID.TID 0000.0001) > lastinterval= 864000.,
(PID.TID 0000.0001) >#mult_temp_tut  = 1.,
(PID.TID 0000.0001) >#mult_hflux_tut = 2.,
(PID.TID 0000.0001) >#lastinterval=31104000.,
(PID.TID 0000.0001) > &
(PID.TID 0000.0001) 
(PID.TID 0000.0001) COST_READPARMS: finished reading data.cost
 Weights for temperature: wti  0.5201  0.473  0.3673  0.2588  0.1947  0.1471
  0.1077  0.0847  0.0649  0.0591  0.0507  0.0498  0.0501  0.05  0.05
(PID.TID 0000.0001)  MDS_READ_FIELD: opening global file: Err_hflux.bin
 Uncertainties for Heat Flux -1 -1  76.273009
 Uncertainties for Heat Flux 0 -1  68.4743118
 Uncertainties for Heat Flux 1 -1  62.9375356
 Uncertainties for Heat Flux 2 -1  64.8408178
 Uncertainties for Heat Flux 3 -1  65.2543602
 Uncertainties for Heat Flux 4 -1  67.845389
 Uncertainties for Heat Flux 5 -1  62.3660723
 Uncertainties for Heat Flux 6 -1  58.7744586
 Uncertainties for Heat Flux 7 -1  73.4641635
 Uncertainties for Heat Flux 8 -1  79.5345052
 Uncertainties for Heat Flux 9 -1  73.5550626
 Uncertainties for Heat Flux 10 -1  65.9685949
 Uncertainties for Heat Flux 11 -1  66.1586609
 Uncertainties for Heat Flux 12 -1  70.9392268
 Uncertainties for Heat Flux 13 -1  72.4756076
 Uncertainties for Heat Flux 14 -1  64.1635742
 Uncertainties for Heat Flux 15 -1  0.
 Uncertainties for Heat Flux 16 -1  0.
 Uncertainties for Heat Flux 17 -1  0.
 Uncertainties for Heat Flux 18 -1  20.
 Uncertainties for Heat Flux 19 -1  20.
 Uncertainties for Heat Flux 20 -1  0.
 Uncertainties for Heat Flux 21 -1  0.
 Uncertainties for Heat Flux 22 -1  0.
 Uncertainties for Heat Flux 23 -1  0.
 Uncertainties for Heat Flux 24 -1  0.
 Uncertainties for Heat Flux 25 -1  0.
 Uncertainties for Heat Flux 26 -1  0.
 Uncertainties for Heat Flux 27 -1  0.
 Uncertainties for Heat Flux 28 -1  0.
 Uncertainties for Heat Flux 29 -1  0.
 Uncertainties for Heat Flux 30 -1  0.
 Uncertainties for Heat Flux 31 -1  0.
 Uncertainties for Heat Flux 32 -1  0.
 Uncertainties for Heat Flux 33 -1  0.
 Uncertainties for Heat Flux 34 -1  0.
 Uncertainties for Heat Flux 35 -1  0.
 Uncertainties for Heat Flux 36 -1  0.
 Uncertainties for Heat Flux 37 -1  0.
 Uncertainties for Heat Flux 38 -1  0.
 Uncertainties for Heat Flux 39 -1  0.
 Uncertainties for Heat Flux 40 -1  0.
 Uncertainties for Heat Flux 41 -1  0.
 Uncertainties for Heat Flux 42 -1  0.
 Uncertainties for Heat Flux 43 -1  0.
 Uncertainties for Heat Flux 44 -1  0.
 Uncertainties for Heat Flux 45 -1  0.
 Uncertainties for Heat Flux 46 -1  0.
 Uncertainties for Heat Flux 47 -1  0.
 Uncertainties for Heat Flux 48 -1  0.
 Uncertainties for Heat Flux 49 -1  0.
 Uncertainties for Heat Flux 50 -1  0.
 Uncertainties for Heat Flux 51 -1  0.
 Uncertainties for Heat Flux 52 -1  0.
 Uncertainties for Heat Flux 53 -1  0.
 Uncertainties for Heat Flux 54 -1  0.
 Uncertainties for Heat Flux 55 -1  0.
 Uncertainties for Heat Flux 56 -1  0.
 Uncertainties for Heat Flux 57 -1  0.
 Uncertainties for Heat Flux 58 -1  0.
 Uncertainties for Heat Flux 59 -1  0.
 Uncertainties for Heat Flux 60 -1  0.
 Uncertainties for Heat Flux 61 -1  0.
 Uncertainties for Heat Flux 62 -1  0.
 Uncertainties for Heat Flux 63 -1  0.
 Uncertainties for Heat Flux 64 -1  0.
 Uncertainties for Heat Flux 65 -1  0.
 Uncertainties for Heat Flux 66 -1  0.
 Uncertainties for Heat Flux 67 -1  0.
 Uncertainties for Heat Flux 68 -1  0.
 Uncertainties for Heat Flux 69 -1  0.
 Uncertainties for Heat Flux 70 -1  0.
 Uncertainties for Heat Flux 71 -1  0.
 Uncertainties for Heat Flux 72 -1  0.
 Uncertainties for Heat Flux 73 -1  23.6660175
 Uncertainties for Heat Flux 74 -1  20.
 Uncertainties for Heat Flux 75 -1  20.
 Uncertainties for Heat Flux 76 -1  21.3001158
 Uncertainties for Heat Flux 77 -1  0.
 Uncertainties for Heat Flux 78 -1  0.
 Uncertainties for Heat Flux 79 -1  0.
 Uncertainties for Heat Flux 80 -1  0.
 Uncertainties for Heat Flux 81 -1  0.
 Uncertainties for Heat Flux 82 -1  0.
 Uncertainties for Heat Flux 83 -1  0.
 Uncertainties for Heat Flux 84 -1  0.
 Uncertainties for Heat Flux 85 -1  20.
 Uncertainties for Heat Flux 86 -1  23.3404449
 Uncertainties for Heat Flux 87 -1  54.8667202
 Uncertainties for Heat Flux 88 -1  79.3905729
 Uncertainties for Heat Flux 89 -1  76.273009
 Uncertainties for Heat Flux 90 -1  68.4743118
 Uncertainties for Heat Flux 91 -1  62.9375356
 Uncertainties for Heat Flux 92 -1  64.8408178
 Uncertainties for Heat Flux -1 0  58.3026975
 Uncertainties for Heat Flux 0 0  84.2419128
 Uncertainties for Heat Flux 1 0  79.7108154
 Uncertainties for Heat Flux 2 0  76.0332743
 Uncertainties for Heat Flux 3 0  74.7862523
 Uncertainties for Heat Flux 4 0  59.8079503
 Uncertainties for Heat Flux 5 0  20.
 Uncertainties for Heat Flux 6 0  0.
 Uncertainties for Heat Flux 7 0  20.
 Uncertainties for Heat Flux 8 0  20.
 Uncertainties for Heat Flux 9 0  20.
 Uncertainties for Heat Flux 10 0  20.
 Uncertainties for Heat Flux 11 0  20.
 Uncertainties for Heat Flux 12 0  20.
 Uncertainties for Heat Flux 13 0  20.
 Uncertainties for Heat Flux 14 0  20.
 Uncertainties for Heat Flux 15 0  20.
 Uncertainties for Heat Flux 16 0  20.
 Uncertainties for Heat Flux 17 0  20.
 Uncertainties for Heat Flux 18 0  20.
 Uncertainties for Heat Flux 19 0  20.
 Uncertainties for Heat Flux 20 0  0.
 Uncertainties for Heat Flux 21 0  0.
 Uncertainties for Heat Flux 22 0  0.
 Uncertainties for Heat Flux 23 0  0.
 Uncertainties for Heat Flux 24 0  0.
 Uncertainties for Heat Flux 25 0  0.
 Uncertainties for Heat Flux 26 0  0.
 Uncertainties for Heat Flux 27 0  0.
 Uncertainties for Heat Flux 28 0  0.
 Uncertainties for Heat Flux 29 0  0.
 Uncertainties for Heat Flux 30 0  0.
 Uncertainties for Heat Flux 31 0  0.
 Uncertainties for Heat Flux 32 0  0.
 Uncertainties for Heat Flux 33 0  0.
 Uncertainties for Heat Flux 34 0  0.
 Uncertainties for Heat Flux 35 0  0.
 Uncertainties for Heat Flux 36 0  0.
 Uncertainties for Heat Flux 37 0  0.
 Uncertainties for Heat Flux 38 0  0.
 Uncertainties for Heat Flux 39 0  0.
 Uncertainties for Heat Flux 40 0  0.
 Uncertainties for Heat Flux 41 0  0.
 Uncertainties for Heat Flux 42 0  0.
 Uncertainties for Heat Flux 43 0  0.
 Uncertainties for Heat Flux 44 0  0.
 Uncertainties for Heat Flux 45 0  0.
 Uncertainties for Heat Flux 46 0  0.
 Uncertainties for Heat Flux 47 0  0.
 Uncertainties for Heat Flux 48 0  0.
 Uncertainties for Heat Flux 49 0  0.
 Uncertainties for Heat Flux 50 0  0.
 Uncertainties for Heat Flux 51 0  0.
 Uncertainties for Heat Flux 52 0  0.
 Uncertainties for Heat Flux 53 0  0.
 Uncertainties for Heat Flux 54 0  0.
 Uncertainties for Heat Flux 55 0  0.
 Uncertainties for Heat Flux 56 0  0.
 Uncertainties for Heat Flux 57 0  0.
 Uncertainties for Heat Flux 58 0  0.
 Uncertainties for Heat Flux 59 0  0.
 Uncertainties for Heat Flux 60 0  0.
 Uncertainties for Heat Flux 61 0  0.
 Uncertainties for Heat Flux 62 0  0.
 Uncertainties for Heat Flux 63 0  0.
 Uncertainties for Heat Flux 64 0  0.
 Uncertainties for Heat Flux 65 0  0.
 Uncertainties for Heat Flux 66 0  0.
 Uncertainties for Heat Flux 67 0  0.
 Uncertainties for Heat Flux 68 0  0.
 Uncertainties for Heat Flux 69 0  0.
 Uncertainties for Heat Flux 70 0  0.
 Uncertainties for Heat Flux 71 0  0.
 Uncertainties for Heat Flux 72 0  0.
 Uncertainties for Heat Flux 73 0  0.
 Uncertainties for Heat Flux 74 0  0.
 Uncertainties for Heat Flux 75 0  0.
 Uncertainties for Heat Flux 76 0  0.
 Uncertainties for Heat Flux 77 0  0.
 Uncertainties for Heat Flux 78 0  0.
 Uncertainties for Heat Flux 79 0  0.
 Uncertainties for Heat Flux 80 0  0.
 Uncertainties for Heat Flux 81 0  0.
 Uncertainties for Heat Flux 82 0  0.
 Uncertainties for Heat Flux 83 0  0.
 Uncertainties for Heat Flux 84 0  0.
 Uncertainties for Heat Flux 85 0  0.
 Uncertainties for Heat Flux 86 0  20.
 Uncertainties for Heat Flux 87 0  20.
 Uncertainties for Heat Flux 88 0  30.2206078
 Uncertainties for Heat Flux 89 0  58.3026975
 Uncertainties for Heat Flux 90 0  84.2419128
 Uncertainties for Heat Flux 91 0  79.7108154
 Uncertainties for Heat Flux 92 0  76.0332743
 Uncertainties for Heat Flux -1 1  0.
 Uncertainties for Heat Flux 0 1  0.
 Uncertainties for Heat Flux 1 1  0.
 Uncertainties for Heat Flux 2 1  0.
 Uncertainties for Heat Flux 3 1  0.
 Uncertainties for Heat Flux 4 1  0.
 Uncertainties for Heat Flux 5 1  0.
 Uncertainties for Heat Flux 6 1  0.
 Uncertainties for Heat Flux 7 1  0.
 Uncertainties for Heat Flux 8 1  0.
 Uncertainties for Heat Flux 9 1  0.
 Uncertainties for Heat Flux 10 1  0.
 Uncertainties for Heat Flux 11 1  0.
 Uncertainties for Heat Flux 12 1  0.
 Uncertainties for Heat Flux 13 1  0.
 Uncertainties for Heat Flux 14 1  0.
 Uncertainties for Heat Flux 15 1  0.
 Uncertainties for Heat Flux 16 1  0.
 Uncertainties for Heat Flux 17 1  0.
 Uncertainties for Heat Flux 18 1  0.
 Uncertainties for Heat Flux 19 1  0.
 Uncertainties for Heat Flux 20 1  0.
 Uncertainties for Heat Flux 21 1  0.
 Uncertainties for Heat Flux 22 1  0.
 Uncertainties for Heat Flux 23 1  0.
 Uncertainties for Heat Flux 24 1  0.
 Uncertainties for Heat Flux 25 1  0.
 Uncertainties for Heat Flux 26 1  0.
 Uncertainties for Heat Flux 27 1  0.
 Uncertainties for Heat Flux 28 1  0.
 Uncertainties for Heat Flux 29 1  0.
 Uncertainties for Heat Flux 30 1  0.
 Uncertainties for Heat Flux 31 1  0.
 Uncertainties for Heat Flux 32 1  0.
 Uncertainties for Heat Flux 33 1  0.
 Uncertainties for Heat Flux 34 1  0.
 Uncertainties for Heat Flux 35 1  0.
 Uncertainties for Heat Flux 36 1  0.
 Uncertainties for Heat Flux 37 1  0.
 Uncertainties for Heat Flux 38 1  0.
 Uncertainties for Heat Flux 39 1  0.
 Uncertainties for Heat Flux 40 1  0.
 Uncertainties for Heat Flux 41 1  0.
 Uncertainties for Heat Flux 42 1  0.
 Uncertainties for Heat Flux 43 1  0.
 Uncertainties for Heat Flux 44 1  0.
 Uncertainties for Heat Flux 45 1  0.
 Uncertainties for Heat Flux 46 1  0.
 Uncertainties for Heat Flux 47 1  0.
 Uncertainties for Heat Flux 48 1  0.
 Uncertainties for Heat Flux 49 1  0.
 Uncertainties for Heat Flux 50 1  0.
 Uncertainties for Heat Flux 51 1  0.
 Uncertainties for Heat Flux 52 1  0.
 Uncertainties for Heat Flux 53 1  0.
 Uncertainties for Heat Flux 54 1  0.
 Uncertainties for Heat Flux 55 1  0.
 Uncertainties for Heat Flux 56 1  0.
 Uncertainties for Heat Flux 57 1  0.
 Uncertainties for Heat Flux 58 1  0.
 Uncertainties for Heat Flux 59 1  0.
 Uncertainties for Heat Flux 60 1  0.
 Uncertainties for Heat Flux 61 1  0.
 Uncertainties for Heat Flux 62 1  0.
 Uncertainties for Heat Flux 63 1  0.
 Uncertainties for Heat Flux 64 1  0.
 Uncertainties for Heat Flux 65 1  0.
 Uncertainties for Heat Flux 66 1  0.
 Uncertainties for Heat Flux 67 1  0.
 Uncertainties for Heat Flux 68 1  0.
 Uncertainties for Heat Flux 69 1  0.
 Uncertainties for Heat Flux 70 1  0.
 Uncertainties for Heat Flux 71 1  0.
 Uncertainties for Heat Flux 72 1  0.
 Uncertainties for Heat Flux 73 1  0.
 Uncertainties for Heat Flux 74 1  0.
 Uncertainties for Heat Flux 75 1  0.
 Uncertainties for Heat Flux 76 1  0.
 Uncertainties for Heat Flux 77 1  0.
 Uncertainties for Heat Flux 78 1  0.
 Uncertainties for Heat Flux 79 1  0.
 Uncertainties for Heat Flux 80 1  0.
 Uncertainties for Heat Flux 81 1  0.
 Uncertainties for Heat Flux 82 1  0.
 Uncertainties for Heat Flux 83 1  0.
 Uncertainties for Heat Flux 84 1  0.
 Uncertainties for Heat Flux 85 1  0.
 Uncertainties for Heat Flux 86 1  0.
 Uncertainties for Heat Flux 87 1  0.
 Uncertainties for Heat Flux 88 1  0.
 Uncertainties for Heat Flux 89 1  0.
 Uncertainties for Heat Flux 90 1  0.
 Uncertainties for Heat Flux 91 1  0.
 Uncertainties for Heat Flux 92 1  0.
 Uncertainties for Heat Flux -1 2  0.
 Uncertainties for Heat Flux 0 2  0.
 Uncertainties for Heat Flux 1 2  0.
 Uncertainties for Heat Flux 2 2  0.
 Uncertainties for Heat Flux 3 2  0.
 Uncertainties for Heat Flux 4 2  0.
 Uncertainties for Heat Flux 5 2  0.
 Uncertainties for Heat Flux 6 2  0.
 Uncertainties for Heat Flux 7 2  0.
 Uncertainties for Heat Flux 8 2  0.
 Uncertainties for Heat Flux 9 2  0.
 Uncertainties for Heat Flux 10 2  0.
 Uncertainties for Heat Flux 11 2  0.
 Uncertainties for Heat Flux 12 2  0.
 Uncertainties for Heat Flux 13 2  0.
 Uncertainties for Heat Flux 14 2  0.
 Uncertainties for Heat Flux 15 2  0.
 Uncertainties for Heat Flux 16 2  0.
 Uncertainties for Heat Flux 17 2  0.
 Uncertainties for Heat Flux 18 2  0.
 Uncertainties for Heat Flux 19 2  0.
 Uncertainties for Heat Flux 20 2  0.
 Uncertainties for Heat Flux 21 2  0.
 Uncertainties for Heat Flux 22 2  0.
 Uncertainties for Heat Flux 23 2  0.
 Uncertainties for Heat Flux 24 2  0.
 Uncertainties for Heat Flux 25 2  0.
 Uncertainties for Heat Flux 26 2  0.
 Uncertainties for Heat Flux 27 2  0.
 Uncertainties for Heat Flux 28 2  0.
 Uncertainties for Heat Flux 29 2  0.
 Uncertainties for Heat Flux 30 2  0.
 Uncertainties for Heat Flux 31 2  0.
 Uncertainties for Heat Flux 32 2  0.
 Uncertainties for Heat Flux 33 2  0.
 Uncertainties for Heat Flux 34 2  0.
 Uncertainties for Heat Flux 35 2  0.
 Uncertainties for Heat Flux 36 2  0.
 Uncertainties for Heat Flux 37 2  0.
 Uncertainties for Heat Flux 38 2  0.
 Uncertainties for Heat Flux 39 2  0.
 Uncertainties for Heat Flux 40 2  0.
 Uncertainties for Heat Flux 41 2  0.
 Uncertainties for Heat Flux 42 2  0.
 Uncertainties for Heat Flux 43 2  25.1049745
 Uncertainties for Heat Flux 44 2  34.3958925
 Uncertainties for Heat Flux 45 2  30.0502332
 Uncertainties for Heat Flux 46 2  24.851162
 Uncertainties for Heat Flux 47 2  20.6751083
 Uncertainties for Heat Flux 48 2  20.
 Uncertainties for Heat Flux 49 2  20.
 Uncertainties for Heat Flux 50 2  20.
 Uncertainties for Heat Flux 51 2  20.
 Uncertainties for Heat Flux 52 2  20.
 Uncertainties for Heat Flux 53 2  20.
 Uncertainties for Heat Flux 54 2  20.
 Uncertainties for Heat Flux 55 2  20.
 Uncertainties for Heat Flux 56 2  20.
 Uncertainties for Heat Flux 57 2  20.
 Uncertainties for Heat Flux 58 2  20.
 Uncertainties for Heat Flux 59 2  20.
 Uncertainties for Heat Flux 60 2  20.
 Uncertainties for Heat Flux 61 2  21.8483391
 Uncertainties for Heat Flux 62 2  26.7026876
 Uncertainties for Heat Flux 63 2  20.7786795
 Uncertainties for Heat Flux 64 2  20.
 Uncertainties for Heat Flux 65 2  0.
 Uncertainties for Heat Flux 66 2  0.
 Uncertainties for Heat Flux 67 2  20.
 Uncertainties for Heat Flux 68 2  20.
 Uncertainties for Heat Flux 69 2  20.
 Uncertainties for Heat Flux 70 2  20.
 Uncertainties for Heat Flux 71 2  0.
 Uncertainties for Heat Flux 72 2  0.
 Uncertainties for Heat Flux 73 2  0.
 Uncertainties for Heat Flux 74 2  0.
 Uncertainties for Heat Flux 75 2  0.
 Uncertainties for Heat Flux 76 2  20.
 Uncertainties for Heat Flux 77 2  20.
 Uncertainties for Heat Flux 78 2  20.
 Uncertainties for Heat Flux 79 2  20.
 Uncertainties for Heat Flux 80 2  20.
 Uncertainties for Heat Flux 81 2  20.
 Uncertainties for Heat Flux 82 2  20.
 Uncertainties for Heat Flux 83 2  20.
 Uncertainties for Heat Flux 84 2  20.
 Uncertainties for Heat Flux 85 2  20.
 Uncertainties for Heat Flux 86 2  20.
 Uncertainties for Heat Flux 87 2  20.
 Uncertainties for Heat Flux 88 2  0.
 Uncertainties for Heat Flux 89 2  0.
 Uncertainties for Heat Flux 90 2  0.
 Uncertainties for Heat Flux 91 2  0.
 Uncertainties for Heat Flux 92 2  0.
 Uncertainties for Heat Flux -1 3  20.
 Uncertainties for Heat Flux 0 3  20.
 Uncertainties for Heat Flux 1 3  20.
 Uncertainties for Heat Flux 2 3  22.6505903
 Uncertainties for Heat Flux 3 3  21.3630117
 Uncertainties for Heat Flux 4 3  26.065595
 Uncertainties for Heat Flux 5 3  26.986117
 Uncertainties for Heat Flux 6 3  20.
 Uncertainties for Heat Flux 7 3  23.5551402
 Uncertainties for Heat Flux 8 3  20.
 Uncertainties for Heat Flux 9 3  20.
 Uncertainties for Heat Flux 10 3  20.
 Uncertainties for Heat Flux 11 3  0.
 Uncertainties for Heat Flux 12 3  0.
 Uncertainties for Heat Flux 13 3  0.
 Uncertainties for Heat Flux 14 3  0.
 Uncertainties for Heat Flux 15 3  0.
 Uncertainties for Heat Flux 16 3  0.
 Uncertainties for Heat Flux 17 3  0.
 Uncertainties for Heat Flux 18 3  0.
 Uncertainties for Heat Flux 19 3  0.
 Uncertainties for Heat Flux 20 3  0.
 Uncertainties for Heat Flux 21 3  0.
 Uncertainties for Heat Flux 22 3  0.
 Uncertainties for Heat Flux 23 3  0.
 Uncertainties for Heat Flux 24 3  0.
 Uncertainties for Heat Flux 25 3  0.
 Uncertainties for Heat Flux 26 3  0.
 Uncertainties for Heat Flux 27 3  0.
 Uncertainties for Heat Flux 28 3  0.
 Uncertainties for Heat Flux 29 3  0.
 Uncertainties for Heat Flux 30 3  0.
 Uncertainties for Heat Flux 31 3  0.
 Uncertainties for Heat Flux 32 3  0.
 Uncertainties for Heat Flux 33 3  0.
 Uncertainties for Heat Flux 34 3  0.
 Uncertainties for Heat Flux 35 3  0.
 Uncertainties for Heat Flux 36 3  0.
 Uncertainties for Heat Flux 37 3  0.
 Uncertainties for Heat Flux 38 3  0.
 Uncertainties for Heat Flux 39 3  20.
 Uncertainties for Heat Flux 40 3  20.
 Uncertainties for Heat Flux 41 3  20.
 Uncertainties for Heat Flux 42 3  20.
 Uncertainties for Heat Flux 43 3  23.6693563
 Uncertainties for Heat Flux 44 3  30.2193947
 Uncertainties for Heat Flux 45 3  26.0030136
 Uncertainties for Heat Flux 46 3  23.6208197
 Uncertainties for Heat Flux 47 3  22.4202108
 Uncertainties for Heat Flux 48 3  22.8301423
 Uncertainties for Heat Flux 49 3  25.0808481
 Uncertainties for Heat Flux 50 3  26.8007984
 Uncertainties for Heat Flux 51 3  26.7068831
 Uncertainties for Heat Flux 52 3  26.8490683
 Uncertainties for Heat Flux 53 3  27.4455121
 Uncertainties for Heat Flux 54 3  27.0503267
 Uncertainties for Heat Flux 55 3  26.2405459
 Uncertainties for Heat Flux 56 3  27.4554831
 Uncertainties for Heat Flux 57 3  25.0755326
 Uncertainties for Heat Flux 58 3  20.2545576
 Uncertainties for Heat Flux 59 3  20.7207416
 Uncertainties for Heat Flux 60 3  23.1021633
 Uncertainties for Heat Flux 61 3  25.6214012
 Uncertainties for Heat Flux 62 3  26.0480474
 Uncertainties for Heat Flux 63 3  25.9668086
 Uncertainties for Heat Flux 64 3  26.2156134
 Uncertainties for Heat Flux 65 3  27.0945527
 Uncertainties for Heat Flux 66 3  27.383042
 Uncertainties for Heat Flux 67 3  23.1496229
 Uncertainties for Heat Flux 68 3  20.9511627
 Uncertainties for Heat Flux 69 3  22.5467208
 Uncertainties for Heat Flux 70 3  25.7905223
 Uncertainties for Heat Flux 71 3  24.3370209
 Uncertainties for Heat Flux 72 3  21.4278711
 Uncertainties for Heat Flux 73 3  21.267409
 Uncertainties for Heat Flux 74 3  0.
 Uncertainties for Heat Flux 75 3  0.
 Uncertainties for Heat Flux 76 3  20.
 Uncertainties for Heat Flux 77 3  20.
 Uncertainties for Heat Flux 78 3  20.
 Uncertainties for Heat Flux 79 3  20.
 Uncertainties for Heat Flux 80 3  20.
 Uncertainties for Heat Flux 81 3  20.
 Uncertainties for Heat Flux 82 3  20.
 Uncertainties for Heat Flux 83 3  20.
 Uncertainties for Heat Flux 84 3  22.1811104
 Uncertainties for Heat Flux 85 3  22.8898856
 Uncertainties for Heat Flux 86 3  22.6803862
 Uncertainties for Heat Flux 87 3  22.3583066
 Uncertainties for Heat Flux 88 3  20.
 Uncertainties for Heat Flux 89 3  20.
 Uncertainties for Heat Flux 90 3  20.
 Uncertainties for Heat Flux 91 3  20.
 Uncertainties for Heat Flux 92 3  22.6505903
 Uncertainties for Heat Flux -1 4  30.4287504
 Uncertainties for Heat Flux 0 4  34.961436
 Uncertainties for Heat Flux 1 4  37.6219209
 Uncertainties for Heat Flux 2 4  37.2323329
 Uncertainties for Heat Flux 3 4  32.9840317
 Uncertainties for Heat Flux 4 4  31.2157167
 Uncertainties for Heat Flux 5 4  31.9340642
 Uncertainties for Heat Flux 6 4  29.8042545
 Uncertainties for Heat Flux 7 4  28.0792548
 Uncertainties for Heat Flux 8 4  27.5983963
 Uncertainties for Heat Flux 9 4  25.7106476
 Uncertainties for Heat Flux 10 4  29.0821438
 Uncertainties for Heat Flux 11 4  28.6465562
 Uncertainties for Heat Flux 12 4  26.3201253
 Uncertainties for Heat Flux 13 4  29.3200353
 Uncertainties for Heat Flux 14 4  20.3703289
 Uncertainties for Heat Flux 15 4  27.2030754
 Uncertainties for Heat Flux 16 4  29.4719003
 Uncertainties for Heat Flux 17 4  24.211599
 Uncertainties for Heat Flux 18 4  20.1636779
 Uncertainties for Heat Flux 19 4  20.4485674
 Uncertainties for Heat Flux 20 4  20.
 Uncertainties for Heat Flux 21 4  20.
 Uncertainties for Heat Flux 22 4  20.
 Uncertainties for Heat Flux 23 4  20.5310656
 Uncertainties for Heat Flux 24 4  29.1405767
 Uncertainties for Heat Flux 25 4  30.9526863
 Uncertainties for Heat Flux 26 4  20.
 Uncertainties for Heat Flux 27 4  20.
 Uncertainties for Heat Flux 28 4  20.
 Uncertainties for Heat Flux 29 4  20.
 Uncertainties for Heat Flux 30 4  20.
 Uncertainties for Heat Flux 31 4  22.5574574
 Uncertainties for Heat Flux 32 4  23.9095764
 Uncertainties for Heat Flux 33 4  20.828508
 Uncertainties for Heat Flux 34 4  36.2549858
 Uncertainties for Heat Flux 35 4  31.1939799
 Uncertainties for Heat Flux 36 4  27.1377052
 Uncertainties for Heat Flux 37 4  26.3237743
 Uncertainties for Heat Flux 38 4  22.9073629
 Uncertainties for Heat Flux 39 4  22.3086224
 Uncertainties for Heat Flux 40 4  23.7118273
 Uncertainties for Heat Flux 41 4  23.8755255
 Uncertainties for Heat Flux 42 4  30.9207668
 Uncertainties for Heat Flux 43 4  36.0220318
 Uncertainties for Heat Flux 44 4  36.7056344
 Uncertainties for Heat Flux 45 4  43.1807632
 Uncertainties for Heat Flux 46 4  47.841685
 Uncertainties for Heat Flux 47 4  42.8644981
 Uncertainties for Heat Flux 48 4  39.1560834
 Uncertainties for Heat Flux 49 4  35.5341358
 Uncertainties for Heat Flux 50 4  35.13937
 Uncertainties for Heat Flux 51 4  35.64339
 Uncertainties for Heat Flux 52 4  34.9973195
 Uncertainties for Heat Flux 53 4  34.7715492
 Uncertainties for Heat Flux 54 4  38.6646741
 Uncertainties for Heat Flux 55 4  43.6698081
 Uncertainties for Heat Flux 56 4  42.6434504
 Uncertainties for Heat Flux 57 4  43.2107976
 Uncertainties for Heat Flux 58 4  44.7067763
 Uncertainties for Heat Flux 59 4  44.4471753
 Uncertainties for Heat Flux 60 4  44.8464616
 Uncertainties for Heat Flux 61 4  48.2896322
 Uncertainties for Heat Flux 62 4  48.6077576
 Uncertainties for Heat Flux 63 4  46.8977947
 Uncertainties for Heat Flux 64 4  47.7851219
 Uncertainties for Heat Flux 65 4  49.7259725
 Uncertainties for Heat Flux 66 4  48.9074605
 Uncertainties for Heat Flux 67 4  47.9396489
 Uncertainties for Heat Flux 68 4  47.4647929
 Uncertainties for Heat Flux 69 4  48.4104614
 Uncertainties for Heat Flux 70 4  48.4387856
 Uncertainties for Heat Flux 71 4  45.8086313
 Uncertainties for Heat Flux 72 4  40.9222654
 Uncertainties for Heat Flux 73 4  38.0554269
 Uncertainties for Heat Flux 74 4  39.8550771
 Uncertainties for Heat Flux 75 4  0.
 Uncertainties for Heat Flux 76 4  0.
 Uncertainties for Heat Flux 77 4  20.
 Uncertainties for Heat Flux 78 4  20.
 Uncertainties for Heat Flux 79 4  20.
 Uncertainties for Heat Flux 80 4  21.0441459
 Uncertainties for Heat Flux 81 4  23.4952208
 Uncertainties for Heat Flux 82 4  24.3490645
 Uncertainties for Heat Flux 83 4  25.659867
 Uncertainties for Heat Flux 84 4  26.9154905
 Uncertainties for Heat Flux 85 4  27.3541883
 Uncertainties for Heat Flux 86 4  27.9229889
 Uncertainties for Heat Flux 87 4  28.59187
 Uncertainties for Heat Flux 88 4  28.9478467
 Uncertainties for Heat Flux 89 4  30.4287504
 Uncertainties for Heat Flux 90 4  34.961436
 Uncertainties for Heat Flux 91 4  37.6219209
 Uncertainties for Heat Flux 92 4  37.2323329
 Uncertainties for Heat Flux -1 5  35.4351031
 Uncertainties for Heat Flux 0 5  36.8407974
 Uncertainties for Heat Flux 1 5  37.4307219
 Uncertainties for Heat Flux 2 5  35.955129
 Uncertainties for Heat Flux 3 5  35.9501349
 Uncertainties for Heat Flux 4 5  34.4672794
 Uncertainties for Heat Flux 5 5  33.8936749
 Uncertainties for Heat Flux 6 5  36.8293673
 Uncertainties for Heat Flux 7 5  37.7674618
 Uncertainties for Heat Flux 8 5  37.4628995
 Uncertainties for Heat Flux 9 5  38.3536205
 Uncertainties for Heat Flux 10 5  38.8903325
 Uncertainties for Heat Flux 11 5  38.0902106
 Uncertainties for Heat Flux 12 5  38.4220231
 Uncertainties for Heat Flux 13 5  39.7849725
 Uncertainties for Heat Flux 14 5  38.8477065
 Uncertainties for Heat Flux 15 5  40.1576729
 Uncertainties for Heat Flux 16 5  41.7281672
 Uncertainties for Heat Flux 17 5  40.2861423
 Uncertainties for Heat Flux 18 5  37.5212027
 Uncertainties for Heat Flux 19 5  35.9179471
 Uncertainties for Heat Flux 20 5  35.4241943
 Uncertainties for Heat Flux 21 5  35.7506835
 Uncertainties for Heat Flux 22 5  33.4127509
 Uncertainties for Heat Flux 23 5  37.3168011
 Uncertainties for Heat Flux 24 5  36.737566
 Uncertainties for Heat Flux 25 5  35.2726313
 Uncertainties for Heat Flux 26 5  36.8472818
 Uncertainties for Heat Flux 27 5  37.7766393
 Uncertainties for Heat Flux 28 5  37.9744479
 Uncertainties for Heat Flux 29 5  37.5435155
 Uncertainties for Heat Flux 30 5  38.9883226
 Uncertainties for Heat Flux 31 5  42.3548311
 Uncertainties for Heat Flux 32 5  42.5383504
 Uncertainties for Heat Flux 33 5  43.5952396
 Uncertainties for Heat Flux 34 5  45.4248225
 Uncertainties for Heat Flux 35 5  46.3972232
 Uncertainties for Heat Flux 36 5  48.889478
 Uncertainties for Heat Flux 37 5  48.1586278
 Uncertainties for Heat Flux 38 5  45.9418081
 Uncertainties for Heat Flux 39 5  44.1138407
 Uncertainties for Heat Flux 40 5  44.5328318
 Uncertainties for Heat Flux 41 5  45.506897
 Uncertainties for Heat Flux 42 5  53.4532572
 Uncertainties for Heat Flux 43 5  57.8389676
 Uncertainties for Heat Flux 44 5  59.4659602
 Uncertainties for Heat Flux 45 5  60.6434021
 Uncertainties for Heat Flux 46 5  58.19008
 Uncertainties for Heat Flux 47 5  54.5764046
 Uncertainties for Heat Flux 48 5  51.1520055
 Uncertainties for Heat Flux 49 5  47.601738
 Uncertainties for Heat Flux 50 5  45.9889768
 Uncertainties for Heat Flux 51 5  45.6553116
 Uncertainties for Heat Flux 52 5  43.3519986
 Uncertainties for Heat Flux 53 5  43.0126305
 Uncertainties for Heat Flux 54 5  44.8232257
 Uncertainties for Heat Flux 55 5  46.8914363
 Uncertainties for Heat Flux 56 5  47.3123296
 Uncertainties for Heat Flux 57 5  46.4853923
 Uncertainties for Heat Flux 58 5  45.5668761
 Uncertainties for Heat Flux 59 5  46.1102956
 Uncertainties for Heat Flux 60 5  45.3503151
 Uncertainties for Heat Flux 61 5  43.9419943
 Uncertainties for Heat Flux 62 5  44.1349004
 Uncertainties for Heat Flux 63 5  44.1050269
 Uncertainties for Heat Flux 64 5  42.874122
 Uncertainties for Heat Flux 65 5  42.2339923
 Uncertainties for Heat Flux 66 5  42.9091384
 Uncertainties for Heat Flux 67 5  43.262483
 Uncertainties for Heat Flux 68 5  44.7346484
 Uncertainties for Heat Flux 69 5  46.6855125
 Uncertainties for Heat Flux 70 5  48.9237595
 Uncertainties for Heat Flux 71 5  52.2617315
 Uncertainties for Heat Flux 72 5  52.1147321
 Uncertainties for Heat Flux 73 5  48.3858426
 Uncertainties for Heat Flux 74 5  43.0622292
 Uncertainties for Heat Flux 75 5  41.8966459
 Uncertainties for Heat Flux 76 5  41.8252563
 Uncertainties for Heat Flux 77 5  38.4244874
 Uncertainties for Heat Flux 78 5  33.7658749
 Uncertainties for Heat Flux 79 5  36.3861574
 Uncertainties for Heat Flux 80 5  34.2781232
 Uncertainties for Heat Flux 81 5  33.9349264
 Uncertainties for Heat Flux 82 5  33.3388513
 Uncertainties for Heat Flux 83 5  31.7284603
 Uncertainties for Heat Flux 84 5  32.4318364
 Uncertainties for Heat Flux 85 5  34.1629346
 Uncertainties for Heat Flux 86 5  32.4214961
 Uncertainties for Heat Flux 87 5  32.401474
 Uncertainties for Heat Flux 88 5  33.5066566
 Uncertainties for Heat Flux 89 5  35.4351031
 Uncertainties for Heat Flux 90 5  36.8407974
 Uncertainties for Heat Flux 91 5  37.4307219
 Uncertainties for Heat Flux 92 5  35.955129
 Uncertainties for Heat Flux -1 6  43.4848779
 Uncertainties for Heat Flux 0 6  42.0130081
 Uncertainties for Heat Flux 1 6  40.5135193
 Uncertainties for Heat Flux 2 6  38.9235433
 Uncertainties for Heat Flux 3 6  38.1621443
 Uncertainties for Heat Flux 4 6  39.7819182
 Uncertainties for Heat Flux 5 6  41.3253899
 Uncertainties for Heat Flux 6 6  44.5547282
 Uncertainties for Heat Flux 7 6  48.3326556
 Uncertainties for Heat Flux 8 6  46.8497988
 Uncertainties for Heat Flux 9 6  44.2059517
 Uncertainties for Heat Flux 10 6  42.9568214
 Uncertainties for Heat Flux 11 6  42.2309882
 Uncertainties for Heat Flux 12 6  42.1920764
 Uncertainties for Heat Flux 13 6  42.3155409
 Uncertainties for Heat Flux 14 6  42.1614602
 Uncertainties for Heat Flux 15 6  42.5172265
 Uncertainties for Heat Flux 16 6  43.8377698
 Uncertainties for Heat Flux 17 6  44.690609
 Uncertainties for Heat Flux 18 6  43.7957045
 Uncertainties for Heat Flux 19 6  42.0577558
 Uncertainties for Heat Flux 20 6  40.5330709
 Uncertainties for Heat Flux 21 6  40.9261227
 Uncertainties for Heat Flux 22 6  44.9659081
 Uncertainties for Heat Flux 23 6  45.4870046
 Uncertainties for Heat Flux 24 6  42.9868348
 Uncertainties for Heat Flux 25 6  40.8742447
 Uncertainties for Heat Flux 26 6  39.6362756
 Uncertainties for Heat Flux 27 6  39.7564767
 Uncertainties for Heat Flux 28 6  39.0793145
 Uncertainties for Heat Flux 29 6  38.6109715
 Uncertainties for Heat Flux 30 6  38.062933
 Uncertainties for Heat Flux 31 6  37.3853156
 Uncertainties for Heat Flux 32 6  36.9532712
 Uncertainties for Heat Flux 33 6  36.8791447
 Uncertainties for Heat Flux 34 6  36.3964558
 Uncertainties for Heat Flux 35 6  36.1945171
 Uncertainties for Heat Flux 36 6  35.9175396
 Uncertainties for Heat Flux 37 6  35.8054752
 Uncertainties for Heat Flux 38 6  37.3830878
 Uncertainties for Heat Flux 39 6  39.9856071
 Uncertainties for Heat Flux 40 6  42.6740335
 Uncertainties for Heat Flux 41 6  46.7977282
 Uncertainties for Heat Flux 42 6  51.1881854
 Uncertainties for Heat Flux 43 6  52.6740697
 Uncertainties for Heat Flux 44 6  50.7531344
 Uncertainties for Heat Flux 45 6  47.8820292
 Uncertainties for Heat Flux 46 6  46.4429893
 Uncertainties for Heat Flux 47 6  45.601916
 Uncertainties for Heat Flux 48 6  43.7575181
 Uncertainties for Heat Flux 49 6  42.3110663
 Uncertainties for Heat Flux 50 6  41.8606497
 Uncertainties for Heat Flux 51 6  41.0580076
 Uncertainties for Heat Flux 52 6  39.7428055
 Uncertainties for Heat Flux 53 6  39.2099851
 Uncertainties for Heat Flux 54 6  39.169679
 Uncertainties for Heat Flux 55 6  39.9325816
 Uncertainties for Heat Flux 56 6  40.1387711
 Uncertainties for Heat Flux 57 6  39.7285264
 Uncertainties for Heat Flux 58 6  40.17921
 Uncertainties for Heat Flux 59 6  40.9054337
 Uncertainties for Heat Flux 60 6  40.6581052
 Uncertainties for Heat Flux 61 6  40.274636
 Uncertainties for Heat Flux 62 6  40.3956922
 Uncertainties for Heat Flux 63 6  40.1454398
 Uncertainties for Heat Flux 64 6  39.8437144
 Uncertainties for Heat Flux 65 6  40.1225834
 Uncertainties for Heat Flux 66 6  39.9460373
 Uncertainties for Heat Flux 67 6  39.7104321
 Uncertainties for Heat Flux 68 6  40.6096719
 Uncertainties for Heat Flux 69 6  41.1896114
 Uncertainties for Heat Flux 70 6  42.4641571
 Uncertainties for Heat Flux 71 6  43.4985936
 Uncertainties for Heat Flux 72 6  44.6264903
 Uncertainties for Heat Flux 73 6  46.3894539
 Uncertainties for Heat Flux 74 6  44.9490725
 Uncertainties for Heat Flux 75 6  42.9836235
 Uncertainties for Heat Flux 76 6  44.4841754
 Uncertainties for Heat Flux 77 6  46.5016581
 Uncertainties for Heat Flux 78 6  47.3281759
 Uncertainties for Heat Flux 79 6  48.8488324
 Uncertainties for Heat Flux 80 6  49.1778641
 Uncertainties for Heat Flux 81 6  50.0081673
 Uncertainties for Heat Flux 82 6  50.2918879
 Uncertainties for Heat Flux 83 6  46.1468093
 Uncertainties for Heat Flux 84 6  45.1893368
 Uncertainties for Heat Flux 85 6  54.2250849
 Uncertainties for Heat Flux 86 6  47.8163223
 Uncertainties for Heat Flux 87 6  45.1546256
 Uncertainties for Heat Flux 88 6  43.4295197
 Uncertainties for Heat Flux 89 6  43.4848779
 Uncertainties for Heat Flux 90 6  42.0130081
 Uncertainties for Heat Flux 91 6  40.5135193
 Uncertainties for Heat Flux 92 6  38.9235433
 Uncertainties for Heat Flux -1 7  42.9781227
 Uncertainties for Heat Flux 0 7  42.708039
 Uncertainties for Heat Flux 1 7  42.6126919
 Uncertainties for Heat Flux 2 7  41.603056
 Uncertainties for Heat Flux 3 7  40.5388476
 Uncertainties for Heat Flux 4 7  40.310023
 Uncertainties for Heat Flux 5 7  40.7553183
 Uncertainties for Heat Flux 6 7  40.0159035
 Uncertainties for Heat Flux 7 7  40.7516702
 Uncertainties for Heat Flux 8 7  40.5790914
 Uncertainties for Heat Flux 9 7  39.9293569
 Uncertainties for Heat Flux 10 7  39.3984928
 Uncertainties for Heat Flux 11 7  38.360836
 Uncertainties for Heat Flux 12 7  38.4446462
 Uncertainties for Heat Flux 13 7  39.3182424
 Uncertainties for Heat Flux 14 7  39.8611609
 Uncertainties for Heat Flux 15 7  39.8776474
 Uncertainties for Heat Flux 16 7  39.8294442
 Uncertainties for Heat Flux 17 7  39.9556185
 Uncertainties for Heat Flux 18 7  39.3381157
 Uncertainties for Heat Flux 19 7  38.7609107
 Uncertainties for Heat Flux 20 7  37.7310079
 Uncertainties for Heat Flux 21 7  37.8689493
 Uncertainties for Heat Flux 22 7  39.7502626
 Uncertainties for Heat Flux 23 7  40.3622169
 Uncertainties for Heat Flux 24 7  39.9163895
 Uncertainties for Heat Flux 25 7  38.1775742
 Uncertainties for Heat Flux 26 7  36.9752299
 Uncertainties for Heat Flux 27 7  36.8508549
 Uncertainties for Heat Flux 28 7  36.1649691
 Uncertainties for Heat Flux 29 7  36.2039464
 Uncertainties for Heat Flux 30 7  36.7562593
 Uncertainties for Heat Flux 31 7  36.881972
 Uncertainties for Heat Flux 32 7  36.8431803
 Uncertainties for Heat Flux 33 7  36.5537752
 Uncertainties for Heat Flux 34 7  35.7413832
 Uncertainties for Heat Flux 35 7  34.8223864
 Uncertainties for Heat Flux 36 7  33.9107138
 Uncertainties for Heat Flux 37 7  35.2177696
 Uncertainties for Heat Flux 38 7  37.9325129
 Uncertainties for Heat Flux 39 7  39.8908609
 Uncertainties for Heat Flux 40 7  40.8761419
 Uncertainties for Heat Flux 41 7  43.4218604
 Uncertainties for Heat Flux 42 7  46.9323425
 Uncertainties for Heat Flux 43 7  46.0527128
 Uncertainties for Heat Flux 44 7  42.9217739
 Uncertainties for Heat Flux 45 7  42.1434104
 Uncertainties for Heat Flux 46 7  44.0695521
 Uncertainties for Heat Flux 47 7  44.0231183
 Uncertainties for Heat Flux 48 7  42.0485503
 Uncertainties for Heat Flux 49 7  40.8000857
 Uncertainties for Heat Flux 50 7  40.9822648
 Uncertainties for Heat Flux 51 7  41.1321685
 Uncertainties for Heat Flux 52 7  40.6719907
 Uncertainties for Heat Flux 53 7  40.5733064
 Uncertainties for Heat Flux 54 7  40.197539
 Uncertainties for Heat Flux 55 7  41.0327059
 Uncertainties for Heat Flux 56 7  40.3197155
 Uncertainties for Heat Flux 57 7  39.6864516
 Uncertainties for Heat Flux 58 7  40.74403
 Uncertainties for Heat Flux 59 7  40.800827
 Uncertainties for Heat Flux 60 7  39.957936
 Uncertainties for Heat Flux 61 7  38.6940422
 Uncertainties for Heat Flux 62 7  39.0760606
 Uncertainties for Heat Flux 63 7  39.5857347
 Uncertainties for Heat Flux 64 7  38.980547
 Uncertainties for Heat Flux 65 7  38.601464
 Uncertainties for Heat Flux 66 7  37.6566105
 Uncertainties for Heat Flux 67 7  37.6125132
 Uncertainties for Heat Flux 68 7  38.0915642
 Uncertainties for Heat Flux 69 7  37.6462981
 Uncertainties for Heat Flux 70 7  38.6881479
 Uncertainties for Heat Flux 71 7  38.9335321
 Uncertainties for Heat Flux 72 7  39.6165602
 Uncertainties for Heat Flux 73 7  31.0658086
 Uncertainties for Heat Flux 74 7  45.1136619
 Uncertainties for Heat Flux 75 7  43.8546956
 Uncertainties for Heat Flux 76 7  43.0700143
 Uncertainties for Heat Flux 77 7  43.0063121
 Uncertainties for Heat Flux 78 7  43.2762686
 Uncertainties for Heat Flux 79 7  42.5872224
 Uncertainties for Heat Flux 80 7  42.4668509
 Uncertainties for Heat Flux 81 7  42.9389165
 Uncertainties for Heat Flux 82 7  42.8567626
 Uncertainties for Heat Flux 83 7  42.0251007
 Uncertainties for Heat Flux 84 7  43.5240993
 Uncertainties for Heat Flux 85 7  44.9437396
 Uncertainties for Heat Flux 86 7  43.8097833
 Uncertainties for Heat Flux 87 7  43.6320025
 Uncertainties for Heat Flux 88 7  43.4387792
 Uncertainties for Heat Flux 89 7  42.9781227
 Uncertainties for Heat Flux 90 7  42.708039
 Uncertainties for Heat Flux 91 7  42.6126919
 Uncertainties for Heat Flux 92 7  41.603056
 Uncertainties for Heat Flux -1 8  38.853035
 Uncertainties for Heat Flux 0 8  40.2416763
 Uncertainties for Heat Flux 1 8  40.9444459
 Uncertainties for Heat Flux 2 8  40.5262229
 Uncertainties for Heat Flux 3 8  39.4362615
 Uncertainties for Heat Flux 4 8  38.925876
 Uncertainties for Heat Flux 5 8  38.5899359
 Uncertainties for Heat Flux 6 8  38.0414944
 Uncertainties for Heat Flux 7 8  38.348657
 Uncertainties for Heat Flux 8 8  40.3268738
 Uncertainties for Heat Flux 9 8  41.0241979
 Uncertainties for Heat Flux 10 8  39.4830538
 Uncertainties for Heat Flux 11 8  39.1147283
 Uncertainties for Heat Flux 12 8  39.7904383
 Uncertainties for Heat Flux 13 8  39.6721948
 Uncertainties for Heat Flux 14 8  39.2839082
 Uncertainties for Heat Flux 15 8  39.6211383
 Uncertainties for Heat Flux 16 8  38.630228
 Uncertainties for Heat Flux 17 8  37.8250148
 Uncertainties for Heat Flux 18 8  37.2037487
 Uncertainties for Heat Flux 19 8  37.1848303
 Uncertainties for Heat Flux 20 8  38.6067575
 Uncertainties for Heat Flux 21 8  40.3757979
 Uncertainties for Heat Flux 22 8  43.2382978
 Uncertainties for Heat Flux 23 8  44.6160774
 Uncertainties for Heat Flux 24 8  42.7492523
 Uncertainties for Heat Flux 25 8  39.3986276
 Uncertainties for Heat Flux 26 8  38.1895332
 Uncertainties for Heat Flux 27 8  37.4580008
 Uncertainties for Heat Flux 28 8  37.4506105
 Uncertainties for Heat Flux 29 8  37.9082394
 Uncertainties for Heat Flux 30 8  37.3986861
 Uncertainties for Heat Flux 31 8  37.830527
 Uncertainties for Heat Flux 32 8  38.4096756
 Uncertainties for Heat Flux 33 8  37.1810449
 Uncertainties for Heat Flux 34 8  35.2643706
 Uncertainties for Heat Flux 35 8  34.7671731
 Uncertainties for Heat Flux 36 8  35.4744415
 Uncertainties for Heat Flux 37 8  37.1742802
 Uncertainties for Heat Flux 38 8  39.2269179
 Uncertainties for Heat Flux 39 8  39.9465033
 Uncertainties for Heat Flux 40 8  40.3774796
 Uncertainties for Heat Flux 41 8  41.81191
 Uncertainties for Heat Flux 42 8  42.1490707
 Uncertainties for Heat Flux 43 8  40.018102
 Uncertainties for Heat Flux 44 8  38.2307192
 Uncertainties for Heat Flux 45 8  37.9436696
 Uncertainties for Heat Flux 46 8  40.604943
 Uncertainties for Heat Flux 47 8  43.9969966
 Uncertainties for Heat Flux 48 8  44.186676
 Uncertainties for Heat Flux 49 8  42.4930019
 Uncertainties for Heat Flux 50 8  42.1639417
 Uncertainties for Heat Flux 51 8  41.664381
 Uncertainties for Heat Flux 52 8  40.0649745
 Uncertainties for Heat Flux 53 8  39.6576284
 Uncertainties for Heat Flux 54 8  38.7302691
 Uncertainties for Heat Flux 55 8  38.1987782
 Uncertainties for Heat Flux 56 8  37.1623332
 Uncertainties for Heat Flux 57 8  37.5391731
 Uncertainties for Heat Flux 58 8  37.4588559
 Uncertainties for Heat Flux 59 8  37.6190097
 Uncertainties for Heat Flux 60 8  37.4441261
 Uncertainties for Heat Flux 61 8  36.8805097
 Uncertainties for Heat Flux 62 8  38.1843878
 Uncertainties for Heat Flux 63 8  37.9845715
 Uncertainties for Heat Flux 64 8  37.1993821
 Uncertainties for Heat Flux 65 8  36.8800958
 Uncertainties for Heat Flux 66 8  36.1802254
 Uncertainties for Heat Flux 67 8  35.9446507
 Uncertainties for Heat Flux 68 8  36.3585739
 Uncertainties for Heat Flux 69 8  36.1344573
 Uncertainties for Heat Flux 70 8  36.6512597
 Uncertainties for Heat Flux 71 8  35.4543546
 Uncertainties for Heat Flux 72 8  32.0232747
 Uncertainties for Heat Flux 73 8  0.
 Uncertainties for Heat Flux 74 8  47.738305
 Uncertainties for Heat Flux 75 8  40.971255
 Uncertainties for Heat Flux 76 8  39.5618725
 Uncertainties for Heat Flux 77 8  41.2201595
 Uncertainties for Heat Flux 78 8  44.2187767
 Uncertainties for Heat Flux 79 8  43.52694
 Uncertainties for Heat Flux 80 8  42.7491277
 Uncertainties for Heat Flux 81 8  41.7545643
 Uncertainties for Heat Flux 82 8  41.2392565
 Uncertainties for Heat Flux 83 8  40.8417269
 Uncertainties for Heat Flux 84 8  40.9439748
 Uncertainties for Heat Flux 85 8  41.5447865
 Uncertainties for Heat Flux 86 8  41.4640102
 Uncertainties for Heat Flux 87 8  40.7498983
 Uncertainties for Heat Flux 88 8  38.9439341
 Uncertainties for Heat Flux 89 8  38.853035
 Uncertainties for Heat Flux 90 8  40.2416763
 Uncertainties for Heat Flux 91 8  40.9444459
 Uncertainties for Heat Flux 92 8  40.5262229
 Uncertainties for Heat Flux -1 9  41.8111375
 Uncertainties for Heat Flux 0 9  41.8454272
 Uncertainties for Heat Flux 1 9  42.0821158
 Uncertainties for Heat Flux 2 9  40.4253063
 Uncertainties for Heat Flux 3 9  39.7305196
 Uncertainties for Heat Flux 4 9  40.0685876
 Uncertainties for Heat Flux 5 9  40.3108851
 Uncertainties for Heat Flux 6 9  40.2810752
 Uncertainties for Heat Flux 7 9  41.1916377
 Uncertainties for Heat Flux 8 9  42.0406176
 Uncertainties for Heat Flux 9 9  40.5671031
 Uncertainties for Heat Flux 10 9  40.0008017
 Uncertainties for Heat Flux 11 9  40.4678129
 Uncertainties for Heat Flux 12 9  38.9813913
 Uncertainties for Heat Flux 13 9  38.196455
 Uncertainties for Heat Flux 14 9  41.1425234
 Uncertainties for Heat Flux 15 9  46.9602826
 Uncertainties for Heat Flux 16 9  48.64409
 Uncertainties for Heat Flux 17 9  44.4570859
 Uncertainties for Heat Flux 18 9  44.0773188
 Uncertainties for Heat Flux 19 9  47.2986368
 Uncertainties for Heat Flux 20 9  47.3242785
 Uncertainties for Heat Flux 21 9  46.4793854
 Uncertainties for Heat Flux 22 9  47.5031115
 Uncertainties for Heat Flux 23 9  45.6172078
 Uncertainties for Heat Flux 24 9  43.0635217
 Uncertainties for Heat Flux 25 9  41.2252954
 Uncertainties for Heat Flux 26 9  41.2011
 Uncertainties for Heat Flux 27 9  40.6123002
 Uncertainties for Heat Flux 28 9  40.3825404
 Uncertainties for Heat Flux 29 9  39.8881683
 Uncertainties for Heat Flux 30 9  38.4887454
 Uncertainties for Heat Flux 31 9  37.483551
 Uncertainties for Heat Flux 32 9  36.6890532
 Uncertainties for Heat Flux 33 9  35.431441
 Uncertainties for Heat Flux 34 9  34.4192238
 Uncertainties for Heat Flux 35 9  34.1586418
 Uncertainties for Heat Flux 36 9  35.5139421
 Uncertainties for Heat Flux 37 9  38.3984051
 Uncertainties for Heat Flux 38 9  41.4360619
 Uncertainties for Heat Flux 39 9  41.4053065
 Uncertainties for Heat Flux 40 9  40.6424014
 Uncertainties for Heat Flux 41 9  41.0303211
 Uncertainties for Heat Flux 42 9  41.0649935
 Uncertainties for Heat Flux 43 9  0.
 Uncertainties for Heat Flux 44 9  38.4661821
 Uncertainties for Heat Flux 45 9  39.329834
 Uncertainties for Heat Flux 46 9  42.8701286
 Uncertainties for Heat Flux 47 9  45.8658918
 Uncertainties for Heat Flux 48 9  43.9319305
 Uncertainties for Heat Flux 49 9  41.7768211
 Uncertainties for Heat Flux 50 9  40.2747091
 Uncertainties for Heat Flux 51 9  39.3930098
 Uncertainties for Heat Flux 52 9  37.8006808
 Uncertainties for Heat Flux 53 9  37.2733809
 Uncertainties for Heat Flux 54 9  36.2238369
 Uncertainties for Heat Flux 55 9  36.0625769
 Uncertainties for Heat Flux 56 9  35.1804835
 Uncertainties for Heat Flux 57 9  35.7033666
 Uncertainties for Heat Flux 58 9  35.6723131
 Uncertainties for Heat Flux 59 9  36.5548344
 Uncertainties for Heat Flux 60 9  36.6995296
 Uncertainties for Heat Flux 61 9  37.6373475
 Uncertainties for Heat Flux 62 9  37.988999
 Uncertainties for Heat Flux 63 9  38.4124482
 Uncertainties for Heat Flux 64 9  38.1808058
 Uncertainties for Heat Flux 65 9  37.4992466
 Uncertainties for Heat Flux 66 9  37.0933571
 Uncertainties for Heat Flux 67 9  36.5716063
 Uncertainties for Heat Flux 68 9  36.8917599
 Uncertainties for Heat Flux 69 9  36.742754
 Uncertainties for Heat Flux 70 9  37.0654182
 Uncertainties for Heat Flux 71 9  34.8210119
 Uncertainties for Heat Flux 72 9  32.4017588
 Uncertainties for Heat Flux 73 9  0.
 Uncertainties for Heat Flux 74 9  47.2160009
 Uncertainties for Heat Flux 75 9  40.330115
 Uncertainties for Heat Flux 76 9  38.9571438
 Uncertainties for Heat Flux 77 9  47.2761599
 Uncertainties for Heat Flux 78 9  49.828434
 Uncertainties for Heat Flux 79 9  46.1026255
 Uncertainties for Heat Flux 80 9  44.3569336
 Uncertainties for Heat Flux 81 9  43.0619736
 Uncertainties for Heat Flux 82 9  42.2680225
 Uncertainties for Heat Flux 83 9  41.6225046
 Uncertainties for Heat Flux 84 9  42.3268522
 Uncertainties for Heat Flux 85 9  43.7893429
 Uncertainties for Heat Flux 86 9  43.8705355
 Uncertainties for Heat Flux 87 9  42.269928
 Uncertainties for Heat Flux 88 9  41.4447823
 Uncertainties for Heat Flux 89 9  41.8111375
 Uncertainties for Heat Flux 90 9  41.8454272
 Uncertainties for Heat Flux 91 9  42.0821158
 Uncertainties for Heat Flux 92 9  40.4253063
 Uncertainties for Heat Flux -1 10  42.2986851
 Uncertainties for Heat Flux 0 10  41.4499855
 Uncertainties for Heat Flux 1 10  41.0724475
 Uncertainties for Heat Flux 2 10  39.3841972
 Uncertainties for Heat Flux 3 10  41.5935872
 Uncertainties for Heat Flux 4 10  46.3959427
 Uncertainties for Heat Flux 5 10  48.3105838
 Uncertainties for Heat Flux 6 10  47.2918485
 Uncertainties for Heat Flux 7 10  44.7769559
 Uncertainties for Heat Flux 8 10  45.6554451
 Uncertainties for Heat Flux 9 10  45.5920016
 Uncertainties for Heat Flux 10 10  45.8787359
 Uncertainties for Heat Flux 11 10  45.8930575
 Uncertainties for Heat Flux 12 10  45.5302995
 Uncertainties for Heat Flux 13 10  46.6620191
 Uncertainties for Heat Flux 14 10  52.6621933
 Uncertainties for Heat Flux 15 10  57.7075513
 Uncertainties for Heat Flux 16 10  57.5026169
 Uncertainties for Heat Flux 17 10  52.2772776
 Uncertainties for Heat Flux 18 10  51.5012499
 Uncertainties for Heat Flux 19 10  50.9128596
 Uncertainties for Heat Flux 20 10  47.7692515
 Uncertainties for Heat Flux 21 10  46.2868462
 Uncertainties for Heat Flux 22 10  45.2463735
 Uncertainties for Heat Flux 23 10  42.927887
 Uncertainties for Heat Flux 24 10  41.7851156
 Uncertainties for Heat Flux 25 10  41.5704422
 Uncertainties for Heat Flux 26 10  40.7636757
 Uncertainties for Heat Flux 27 10  39.4493567
 Uncertainties for Heat Flux 28 10  38.1289241
 Uncertainties for Heat Flux 29 10  37.1883653
 Uncertainties for Heat Flux 30 10  36.4444974
 Uncertainties for Heat Flux 31 10  35.747261
 Uncertainties for Heat Flux 32 10  34.7911053
 Uncertainties for Heat Flux 33 10  33.7541847
 Uncertainties for Heat Flux 34 10  33.1997306
 Uncertainties for Heat Flux 35 10  33.386001
 Uncertainties for Heat Flux 36 10  36.1378098
 Uncertainties for Heat Flux 37 10  0.
 Uncertainties for Heat Flux 38 10  44.6266174
 Uncertainties for Heat Flux 39 10  45.3382556
 Uncertainties for Heat Flux 40 10  44.073246
 Uncertainties for Heat Flux 41 10  41.9375458
 Uncertainties for Heat Flux 42 10  40.1245416
 Uncertainties for Heat Flux 43 10  38.2794783
 Uncertainties for Heat Flux 44 10  0.
 Uncertainties for Heat Flux 45 10  44.2350883
 Uncertainties for Heat Flux 46 10  45.8516019
 Uncertainties for Heat Flux 47 10  46.0846647
 Uncertainties for Heat Flux 48 10  42.7723694
 Uncertainties for Heat Flux 49 10  40.8359305
 Uncertainties for Heat Flux 50 10  39.79879
 Uncertainties for Heat Flux 51 10  40.0304139
 Uncertainties for Heat Flux 52 10  39.4100215
 Uncertainties for Heat Flux 53 10  38.950442
 Uncertainties for Heat Flux 54 10  38.1958408
 Uncertainties for Heat Flux 55 10  37.7524389
 Uncertainties for Heat Flux 56 10  37.6569754
 Uncertainties for Heat Flux 57 10  38.1819267
 Uncertainties for Heat Flux 58 10  37.9642785
 Uncertainties for Heat Flux 59 10  37.9303818
 Uncertainties for Heat Flux 60 10  38.2313131
 Uncertainties for Heat Flux 61 10  39.1842982
 Uncertainties for Heat Flux 62 10  39.6390298
 Uncertainties for Heat Flux 63 10  40.1780777
 Uncertainties for Heat Flux 64 10  38.6963558
 Uncertainties for Heat Flux 65 10  38.474055
 Uncertainties for Heat Flux 66 10  37.9179961
 Uncertainties for Heat Flux 67 10  38.0597534
 Uncertainties for Heat Flux 68 10  38.425916
 Uncertainties for Heat Flux 69 10  37.8234933
 Uncertainties for Heat Flux 70 10  38.0809657
 Uncertainties for Heat Flux 71 10  35.9355965
 Uncertainties for Heat Flux 72 10  28.5728925
 Uncertainties for Heat Flux 73 10  0.
 Uncertainties for Heat Flux 74 10  0.
 Uncertainties for Heat Flux 75 10  39.7056669
 Uncertainties for Heat Flux 76 10  37.8057378
 Uncertainties for Heat Flux 77 10  48.925635
 Uncertainties for Heat Flux 78 10  53.3970159
 Uncertainties for Heat Flux 79 10  44.3594513
 Uncertainties for Heat Flux 80 10  42.9984379
 Uncertainties for Heat Flux 81 10  43.7153536
 Uncertainties for Heat Flux 82 10  44.5545476
 Uncertainties for Heat Flux 83 10  45.2839915
 Uncertainties for Heat Flux 84 10  46.022054
 Uncertainties for Heat Flux 85 10  45.465538
 Uncertainties for Heat Flux 86 10  44.2647641
 Uncertainties for Heat Flux 87 10  43.2339834
 Uncertainties for Heat Flux 88 10  43.0968781
 Uncertainties for Heat Flux 89 10  42.2986851
 Uncertainties for Heat Flux 90 10  41.4499855
 Uncertainties for Heat Flux 91 10  41.0724475
 Uncertainties for Heat Flux 92 10  39.3841972
 Uncertainties for Heat Flux -1 11  40.2100964
 Uncertainties for Heat Flux 0 11  40.9815102
 Uncertainties for Heat Flux 1 11  40.5221036
 Uncertainties for Heat Flux 2 11  41.048296
 Uncertainties for Heat Flux 3 11  43.802358
 Uncertainties for Heat Flux 4 11  47.69848
 Uncertainties for Heat Flux 5 11  50.1613681
 Uncertainties for Heat Flux 6 11  52.2528572
 Uncertainties for Heat Flux 7 11  49.4081154
 Uncertainties for Heat Flux 8 11  48.1359227
 Uncertainties for Heat Flux 9 11  47.7945061
 Uncertainties for Heat Flux 10 11  47.813371
 Uncertainties for Heat Flux 11 11  47.1376305
 Uncertainties for Heat Flux 12 11  48.3685404
 Uncertainties for Heat Flux 13 11  48.6109594
 Uncertainties for Heat Flux 14 11  48.3886477
 Uncertainties for Heat Flux 15 11  46.6430359
 Uncertainties for Heat Flux 16 11  45.4791285
 Uncertainties for Heat Flux 17 11  45.0261192
 Uncertainties for Heat Flux 18 11  44.6192691
 Uncertainties for Heat Flux 19 11  43.6530743
 Uncertainties for Heat Flux 20 11  41.8620574
 Uncertainties for Heat Flux 21 11  42.1044509
 Uncertainties for Heat Flux 22 11  41.6889515
 Uncertainties for Heat Flux 23 11  40.2818928
 Uncertainties for Heat Flux 24 11  39.2350337
 Uncertainties for Heat Flux 25 11  38.8447463
 Uncertainties for Heat Flux 26 11  39.3287048
 Uncertainties for Heat Flux 27 11  40.133866
 Uncertainties for Heat Flux 28 11  40.7689425
 Uncertainties for Heat Flux 29 11  41.8179092
 Uncertainties for Heat Flux 30 11  41.0347862
 Uncertainties for Heat Flux 31 11  38.9121793
 Uncertainties for Heat Flux 32 11  35.6794586
 Uncertainties for Heat Flux 33 11  34.4313742
 Uncertainties for Heat Flux 34 11  34.9079043
 Uncertainties for Heat Flux 35 11  34.3097026
 Uncertainties for Heat Flux 36 11  0.
 Uncertainties for Heat Flux 37 11  0.
 Uncertainties for Heat Flux 38 11  47.4278988
 Uncertainties for Heat Flux 39 11  52.0877037
 Uncertainties for Heat Flux 40 11  46.3901889
 Uncertainties for Heat Flux 41 11  43.5620232
 Uncertainties for Heat Flux 42 11  41.2810504
 Uncertainties for Heat Flux 43 11  40.2283243
 Uncertainties for Heat Flux 44 11  0.
 Uncertainties for Heat Flux 45 11  45.6521878
 Uncertainties for Heat Flux 46 11  44.731308
 Uncertainties for Heat Flux 47 11  42.9285227
 Uncertainties for Heat Flux 48 11  41.9473082
 Uncertainties for Heat Flux 49 11  41.6504809
 Uncertainties for Heat Flux 50 11  40.7523251
 Uncertainties for Heat Flux 51 11  40.9776484
 Uncertainties for Heat Flux 52 11  40.4376507
 Uncertainties for Heat Flux 53 11  40.6802355
 Uncertainties for Heat Flux 54 11  40.5047137
 Uncertainties for Heat Flux 55 11  40.4493631
 Uncertainties for Heat Flux 56 11  40.9761594
 Uncertainties for Heat Flux 57 11  41.1278718
 Uncertainties for Heat Flux 58 11  40.96779
 Uncertainties for Heat Flux 59 11  40.4799442
 Uncertainties for Heat Flux 60 11  40.6917038
 Uncertainties for Heat Flux 61 11  40.6499983
 Uncertainties for Heat Flux 62 11  41.6065515
 Uncertainties for Heat Flux 63 11  40.4133116
 Uncertainties for Heat Flux 64 11  39.3366922
 Uncertainties for Heat Flux 65 11  38.715161
 Uncertainties for Heat Flux 66 11  39.0854448
 Uncertainties for Heat Flux 67 11  39.4049873
 Uncertainties for Heat Flux 68 11  39.286581
 Uncertainties for Heat Flux 69 11  38.945357
 Uncertainties for Heat Flux 70 11  37.7365328
 Uncertainties for Heat Flux 71 11  34.7782071
 Uncertainties for Heat Flux 72 11  22.189891
 Uncertainties for Heat Flux 73 11  0.
 Uncertainties for Heat Flux 74 11  0.
 Uncertainties for Heat Flux 75 11  0.
 Uncertainties for Heat Flux 76 11  0.
 Uncertainties for Heat Flux 77 11  49.7218374
 Uncertainties for Heat Flux 78 11  57.113842
 Uncertainties for Heat Flux 79 11  47.5864639
 Uncertainties for Heat Flux 80 11  46.0480792
 Uncertainties for Heat Flux 81 11  45.1708984
 Uncertainties for Heat Flux 82 11  44.4950218
 Uncertainties for Heat Flux 83 11  44.0366694
 Uncertainties for Heat Flux 84 11  43.0434723
 Uncertainties for Heat Flux 85 11  41.9585222
 Uncertainties for Heat Flux 86 11  40.7912235
 Uncertainties for Heat Flux 87 11  40.2758884
 Uncertainties for Heat Flux 88 11  39.9541308
 Uncertainties for Heat Flux 89 11  40.2100964
 Uncertainties for Heat Flux 90 11  40.9815102
 Uncertainties for Heat Flux 91 11  40.5221036
 Uncertainties for Heat Flux 92 11  41.048296
 Uncertainties for Heat Flux -1 12  40.5185095
 Uncertainties for Heat Flux 0 12  40.0522461
 Uncertainties for Heat Flux 1 12  40.3224786
 Uncertainties for Heat Flux 2 12  39.8879821
 Uncertainties for Heat Flux 3 12  38.5975831
 Uncertainties for Heat Flux 4 12  35.9697647
 Uncertainties for Heat Flux 5 12  32.4710007
 Uncertainties for Heat Flux 6 12  42.1156985
 Uncertainties for Heat Flux 7 12  46.4704259
 Uncertainties for Heat Flux 8 12  49.7056796
 Uncertainties for Heat Flux 9 12  45.4411163
 Uncertainties for Heat Flux 10 12  42.2659092
 Uncertainties for Heat Flux 11 12  41.698885
 Uncertainties for Heat Flux 12 12  41.1760667
 Uncertainties for Heat Flux 13 12  40.5958881
 Uncertainties for Heat Flux 14 12  40.7048047
 Uncertainties for Heat Flux 15 12  41.7287973
 Uncertainties for Heat Flux 16 12  42.0073687
 Uncertainties for Heat Flux 17 12  43.2424723
 Uncertainties for Heat Flux 18 12  42.9640026
 Uncertainties for Heat Flux 19 12  41.5771681
 Uncertainties for Heat Flux 20 12  41.3075237
 Uncertainties for Heat Flux 21 12  41.8432077
 Uncertainties for Heat Flux 22 12  40.2041429
 Uncertainties for Heat Flux 23 12  39.0872192
 Uncertainties for Heat Flux 24 12  37.7477309
 Uncertainties for Heat Flux 25 12  37.5717926
 Uncertainties for Heat Flux 26 12  38.1788883
 Uncertainties for Heat Flux 27 12  38.6682237
 Uncertainties for Heat Flux 28 12  42.9530061
 Uncertainties for Heat Flux 29 12  45.6447169
 Uncertainties for Heat Flux 30 12  42.6094869
 Uncertainties for Heat Flux 31 12  36.0196966
 Uncertainties for Heat Flux 32 12  35.15566
 Uncertainties for Heat Flux 33 12  33.5564423
 Uncertainties for Heat Flux 34 12  34.6858919
 Uncertainties for Heat Flux 35 12  0.
 Uncertainties for Heat Flux 36 12  0.
 Uncertainties for Heat Flux 37 12  0.
 Uncertainties for Heat Flux 38 12  0.
 Uncertainties for Heat Flux 39 12  55.3583463
 Uncertainties for Heat Flux 40 12  48.9711838
 Uncertainties for Heat Flux 41 12  44.4446182
 Uncertainties for Heat Flux 42 12  42.1745949
 Uncertainties for Heat Flux 43 12  39.8104343
 Uncertainties for Heat Flux 44 12  41.0333761
 Uncertainties for Heat Flux 45 12  42.7354253
 Uncertainties for Heat Flux 46 12  42.3461863
 Uncertainties for Heat Flux 47 12  42.2753887
 Uncertainties for Heat Flux 48 12  42.6166623
 Uncertainties for Heat Flux 49 12  42.2631982
 Uncertainties for Heat Flux 50 12  41.6529846
 Uncertainties for Heat Flux 51 12  41.6825225
 Uncertainties for Heat Flux 52 12  41.7867406
 Uncertainties for Heat Flux 53 12  41.6722202
 Uncertainties for Heat Flux 54 12  41.8620173
 Uncertainties for Heat Flux 55 12  42.0876357
 Uncertainties for Heat Flux 56 12  42.3564777
 Uncertainties for Heat Flux 57 12  42.4400527
 Uncertainties for Heat Flux 58 12  42.5297896
 Uncertainties for Heat Flux 59 12  42.3362172
 Uncertainties for Heat Flux 60 12  42.0173327
 Uncertainties for Heat Flux 61 12  41.7528375
 Uncertainties for Heat Flux 62 12  41.7752476
 Uncertainties for Heat Flux 63 12  40.3861014
 Uncertainties for Heat Flux 64 12  39.0113525
 Uncertainties for Heat Flux 65 12  38.984251
 Uncertainties for Heat Flux 66 12  39.6975594
 Uncertainties for Heat Flux 67 12  39.4804993
 Uncertainties for Heat Flux 68 12  38.8062293
 Uncertainties for Heat Flux 69 12  37.4784991
 Uncertainties for Heat Flux 70 12  36.873202
 Uncertainties for Heat Flux 71 12  34.2221851
 Uncertainties for Heat Flux 72 12  27.3626258
 Uncertainties for Heat Flux 73 12  0.
 Uncertainties for Heat Flux 74 12  0.
 Uncertainties for Heat Flux 75 12  0.
 Uncertainties for Heat Flux 76 12  0.
 Uncertainties for Heat Flux 77 12  0.
 Uncertainties for Heat Flux 78 12  55.0443001
 Uncertainties for Heat Flux 79 12  48.8593127
 Uncertainties for Heat Flux 80 12  44.5053622
 Uncertainties for Heat Flux 81 12  42.7481054
 Uncertainties for Heat Flux 82 12  41.6302935
 Uncertainties for Heat Flux 83 12  40.5852737
 Uncertainties for Heat Flux 84 12  40.5733458
 Uncertainties for Heat Flux 85 12  40.6975733
 Uncertainties for Heat Flux 86 12  40.3911413
 Uncertainties for Heat Flux 87 12  40.3540249
 Uncertainties for Heat Flux 88 12  40.9062621
 Uncertainties for Heat Flux 89 12  40.5185095
 Uncertainties for Heat Flux 90 12  40.0522461
 Uncertainties for Heat Flux 91 12  40.3224786
 Uncertainties for Heat Flux 92 12  39.8879821
 Uncertainties for Heat Flux -1 13  36.1959769
 Uncertainties for Heat Flux 0 13  35.3144932
 Uncertainties for Heat Flux 1 13  35.0464706
 Uncertainties for Heat Flux 2 13  33.578694
 Uncertainties for Heat Flux 3 13  32.3898754
 Uncertainties for Heat Flux 4 13  27.8565191
 Uncertainties for Heat Flux 5 13  0.
 Uncertainties for Heat Flux 6 13  0.
 Uncertainties for Heat Flux 7 13  0.
 Uncertainties for Heat Flux 8 13  0.
 Uncertainties for Heat Flux 9 13  44.4410839
 Uncertainties for Heat Flux 10 13  41.8518035
 Uncertainties for Heat Flux 11 13  42.5475934
 Uncertainties for Heat Flux 12 13  41.8292427
 Uncertainties for Heat Flux 13 13  40.7000135
 Uncertainties for Heat Flux 14 13  41.6587931
 Uncertainties for Heat Flux 15 13  42.6278884
 Uncertainties for Heat Flux 16 13  42.8757114
 Uncertainties for Heat Flux 17 13  43.7412593
 Uncertainties for Heat Flux 18 13  43.4019839
 Uncertainties for Heat Flux 19 13  43.0283477
 Uncertainties for Heat Flux 20 13  43.0052083
 Uncertainties for Heat Flux 21 13  41.7949479
 Uncertainties for Heat Flux 22 13  40.2156512
 Uncertainties for Heat Flux 23 13  38.9859479
 Uncertainties for Heat Flux 24 13  37.4034723
 Uncertainties for Heat Flux 25 13  36.5173505
 Uncertainties for Heat Flux 26 13  35.7125848
 Uncertainties for Heat Flux 27 13  35.7589474
 Uncertainties for Heat Flux 28 13  41.7914232
 Uncertainties for Heat Flux 29 13  46.285375
 Uncertainties for Heat Flux 30 13  0.
 Uncertainties for Heat Flux 31 13  0.
 Uncertainties for Heat Flux 32 13  0.
 Uncertainties for Heat Flux 33 13  0.
 Uncertainties for Heat Flux 34 13  0.
 Uncertainties for Heat Flux 35 13  0.
 Uncertainties for Heat Flux 36 13  0.
 Uncertainties for Heat Flux 37 13  0.
 Uncertainties for Heat Flux 38 13  0.
 Uncertainties for Heat Flux 39 13  49.2814674
 Uncertainties for Heat Flux 40 13  45.893575
 Uncertainties for Heat Flux 41 13  42.229496
 Uncertainties for Heat Flux 42 13  40.6591301
 Uncertainties for Heat Flux 43 13  39.1002858
 Uncertainties for Heat Flux 44 13  39.8192387
 Uncertainties for Heat Flux 45 13  41.5054696
 Uncertainties for Heat Flux 46 13  41.2974962
 Uncertainties for Heat Flux 47 13  41.6991107
 Uncertainties for Heat Flux 48 13  42.1046117
 Uncertainties for Heat Flux 49 13  41.6773281
 Uncertainties for Heat Flux 50 13  41.8349196
 Uncertainties for Heat Flux 51 13  42.1155275
 Uncertainties for Heat Flux 52 13  42.8517838
 Uncertainties for Heat Flux 53 13  41.7223949
 Uncertainties for Heat Flux 54 13  41.1505648
 Uncertainties for Heat Flux 55 13  42.30837
 Uncertainties for Heat Flux 56 13  42.7014815
 Uncertainties for Heat Flux 57 13  42.3664754
 Uncertainties for Heat Flux 58 13  42.7584915
 Uncertainties for Heat Flux 59 13  41.9791266
 Uncertainties for Heat Flux 60 13  41.4834277
 Uncertainties for Heat Flux 61 13  41.4328518
 Uncertainties for Heat Flux 62 13  41.1277498
 Uncertainties for Heat Flux 63 13  39.4964816
 Uncertainties for Heat Flux 64 13  38.3931611
 Uncertainties for Heat Flux 65 13  38.6923377
 Uncertainties for Heat Flux 66 13  38.5229708
 Uncertainties for Heat Flux 67 13  38.3768953
 Uncertainties for Heat Flux 68 13  36.7643229
 Uncertainties for Heat Flux 69 13  36.4309413
 Uncertainties for Heat Flux 70 13  33.7637285
 Uncertainties for Heat Flux 71 13  31.6881409
 Uncertainties for Heat Flux 72 13  25.1030146
 Uncertainties for Heat Flux 73 13  20.
 Uncertainties for Heat Flux 74 13  0.
 Uncertainties for Heat Flux 75 13  0.
 Uncertainties for Heat Flux 76 13  0.
 Uncertainties for Heat Flux 77 13  0.
 Uncertainties for Heat Flux 78 13  43.8649712
 Uncertainties for Heat Flux 79 13  49.0865962
 Uncertainties for Heat Flux 80 13  42.9291623
 Uncertainties for Heat Flux 81 13  40.8566767
 Uncertainties for Heat Flux 82 13  40.2161268
 Uncertainties for Heat Flux 83 13  40.584947
 Uncertainties for Heat Flux 84 13  39.4876417
 Uncertainties for Heat Flux 85 13  38.4655991
 Uncertainties for Heat Flux 86 13  38.4952799
 Uncertainties for Heat Flux 87 13  37.9467958
 Uncertainties for Heat Flux 88 13  37.6147486
 Uncertainties for Heat Flux 89 13  36.1959769
 Uncertainties for Heat Flux 90 13  35.3144932
 Uncertainties for Heat Flux 91 13  35.0464706
 Uncertainties for Heat Flux 92 13  33.578694
 Uncertainties for Heat Flux -1 14  32.8441277
 Uncertainties for Heat Flux 0 14  31.8106976
 Uncertainties for Heat Flux 1 14  30.7394606
 Uncertainties for Heat Flux 2 14  30.5715516
 Uncertainties for Heat Flux 3 14  29.4075209
 Uncertainties for Heat Flux 4 14  24.207116
 Uncertainties for Heat Flux 5 14  0.
 Uncertainties for Heat Flux 6 14  0.
 Uncertainties for Heat Flux 7 14  0.
 Uncertainties for Heat Flux 8 14  0.
 Uncertainties for Heat Flux 9 14  37.7355966
 Uncertainties for Heat Flux 10 14  40.959088
 Uncertainties for Heat Flux 11 14  42.5130367
 Uncertainties for Heat Flux 12 14  39.2345301
 Uncertainties for Heat Flux 13 14  39.5233962
 Uncertainties for Heat Flux 14 14  42.5961755
 Uncertainties for Heat Flux 15 14  44.1974716
 Uncertainties for Heat Flux 16 14  44.0571849
 Uncertainties for Heat Flux 17 14  44.3248482
 Uncertainties for Heat Flux 18 14  43.8811226
 Uncertainties for Heat Flux 19 14  43.5197538
 Uncertainties for Heat Flux 20 14  42.7920087
 Uncertainties for Heat Flux 21 14  41.4004701
 Uncertainties for Heat Flux 22 14  39.5246792
 Uncertainties for Heat Flux 23 14  37.6870861
 Uncertainties for Heat Flux 24 14  36.3120251
 Uncertainties for Heat Flux 25 14  34.4202741
 Uncertainties for Heat Flux 26 14  33.8075339
 Uncertainties for Heat Flux 27 14  35.2875983
 Uncertainties for Heat Flux 28 14  42.8938319
 Uncertainties for Heat Flux 29 14  48.2655258
 Uncertainties for Heat Flux 30 14  0.
 Uncertainties for Heat Flux 31 14  0.
 Uncertainties for Heat Flux 32 14  0.
 Uncertainties for Heat Flux 33 14  0.
 Uncertainties for Heat Flux 34 14  0.
 Uncertainties for Heat Flux 35 14  0.
 Uncertainties for Heat Flux 36 14  0.
 Uncertainties for Heat Flux 37 14  0.
 Uncertainties for Heat Flux 38 14  0.
 Uncertainties for Heat Flux 39 14  45.0994492
 Uncertainties for Heat Flux 40 14  41.5590884
 Uncertainties for Heat Flux 41 14  40.0280558
 Uncertainties for Heat Flux 42 14  40.0762253
 Uncertainties for Heat Flux 43 14  40.2889423
 Uncertainties for Heat Flux 44 14  40.1320012
 Uncertainties for Heat Flux 45 14  40.4318733
 Uncertainties for Heat Flux 46 14  40.853892
 Uncertainties for Heat Flux 47 14  40.6509024
 Uncertainties for Heat Flux 48 14  40.6310933
 Uncertainties for Heat Flux 49 14  40.8607121
 Uncertainties for Heat Flux 50 14  41.1287104
 Uncertainties for Heat Flux 51 14  41.9356327
 Uncertainties for Heat Flux 52 14  42.2848606
 Uncertainties for Heat Flux 53 14  41.2052479
 Uncertainties for Heat Flux 54 14  39.872481
 Uncertainties for Heat Flux 55 14  41.376585
 Uncertainties for Heat Flux 56 14  42.1102002
 Uncertainties for Heat Flux 57 14  41.0346959
 Uncertainties for Heat Flux 58 14  40.0535526
 Uncertainties for Heat Flux 59 14  39.2076085
 Uncertainties for Heat Flux 60 14  38.5433687
 Uncertainties for Heat Flux 61 14  37.091807
 Uncertainties for Heat Flux 62 14  36.455953
 Uncertainties for Heat Flux 63 14  35.9124476
 Uncertainties for Heat Flux 64 14  35.3434633
 Uncertainties for Heat Flux 65 14  35.1989295
 Uncertainties for Heat Flux 66 14  35.7099857
 Uncertainties for Heat Flux 67 14  34.4685561
 Uncertainties for Heat Flux 68 14  34.4057318
 Uncertainties for Heat Flux 69 14  32.5222219
 Uncertainties for Heat Flux 70 14  29.6291676
 Uncertainties for Heat Flux 71 14  28.0366764
 Uncertainties for Heat Flux 72 14  22.6665446
 Uncertainties for Heat Flux 73 14  20.
 Uncertainties for Heat Flux 74 14  0.
 Uncertainties for Heat Flux 75 14  0.
 Uncertainties for Heat Flux 76 14  0.
 Uncertainties for Heat Flux 77 14  0.
 Uncertainties for Heat Flux 78 14  0.
 Uncertainties for Heat Flux 79 14  34.1465499
 Uncertainties for Heat Flux 80 14  40.3568096
 Uncertainties for Heat Flux 81 14  37.9760234
 Uncertainties for Heat Flux 82 14  38.0205326
 Uncertainties for Heat Flux 83 14  37.9853179
 Uncertainties for Heat Flux 84 14  37.3381697
 Uncertainties for Heat Flux 85 14  36.5759163
 Uncertainties for Heat Flux 86 14  35.4896456
 Uncertainties for Heat Flux 87 14  34.5708974
 Uncertainties for Heat Flux 88 14  33.8910796
 Uncertainties for Heat Flux 89 14  32.8441277
 Uncertainties for Heat Flux 90 14  31.8106976
 Uncertainties for Heat Flux 91 14  30.7394606
 Uncertainties for Heat Flux 92 14  30.5715516
 Uncertainties for Heat Flux -1 15  29.4811401
 Uncertainties for Heat Flux 0 15  27.737819
 Uncertainties for Heat Flux 1 15  27.5811774
 Uncertainties for Heat Flux 2 15  28.4369589
 Uncertainties for Heat Flux 3 15  25.4031512
 Uncertainties for Heat Flux 4 15  20.
 Uncertainties for Heat Flux 5 15  0.
 Uncertainties for Heat Flux 6 15  0.
 Uncertainties for Heat Flux 7 15  0.
 Uncertainties for Heat Flux 8 15  0.
 Uncertainties for Heat Flux 9 15  35.3981756
 Uncertainties for Heat Flux 10 15  39.8422941
 Uncertainties for Heat Flux 11 15  36.7452977
 Uncertainties for Heat Flux 12 15  0.
 Uncertainties for Heat Flux 13 15  32.2469991
 Uncertainties for Heat Flux 14 15  38.1517754
 Uncertainties for Heat Flux 15 15  40.0464433
 Uncertainties for Heat Flux 16 15  41.4933802
 Uncertainties for Heat Flux 17 15  42.3538551
 Uncertainties for Heat Flux 18 15  42.3646406
 Uncertainties for Heat Flux 19 15  41.9339752
 Uncertainties for Heat Flux 20 15  40.4402828
 Uncertainties for Heat Flux 21 15  39.077446
 Uncertainties for Heat Flux 22 15  37.7454987
 Uncertainties for Heat Flux 23 15  36.1261247
 Uncertainties for Heat Flux 24 15  34.3639584
 Uncertainties for Heat Flux 25 15  33.2141164
 Uncertainties for Heat Flux 26 15  34.4973615
 Uncertainties for Heat Flux 27 15  37.5373389
 Uncertainties for Heat Flux 28 15  44.9273275
 Uncertainties for Heat Flux 29 15  47.6474016
 Uncertainties for Heat Flux 30 15  0.
 Uncertainties for Heat Flux 31 15  0.
 Uncertainties for Heat Flux 32 15  0.
 Uncertainties for Heat Flux 33 15  0.
 Uncertainties for Heat Flux 34 15  0.
 Uncertainties for Heat Flux 35 15  0.
 Uncertainties for Heat Flux 36 15  0.
 Uncertainties for Heat Flux 37 15  0.
 Uncertainties for Heat Flux 38 15  0.
 Uncertainties for Heat Flux 39 15  43.9954859
 Uncertainties for Heat Flux 40 15  40.7200826
 Uncertainties for Heat Flux 41 15  39.563378
 Uncertainties for Heat Flux 42 15  40.0162042
 Uncertainties for Heat Flux 43 15  41.3987846
 Uncertainties for Heat Flux 44 15  40.6440461
 Uncertainties for Heat Flux 45 15  39.8798262
 Uncertainties for Heat Flux 46 15  40.1721013
 Uncertainties for Heat Flux 47 15  41.2296518
 Uncertainties for Heat Flux 48 15  41.1290932
 Uncertainties for Heat Flux 49 15  40.2023513
 Uncertainties for Heat Flux 50 15  40.1743107
 Uncertainties for Heat Flux 51 15  41.8225854
 Uncertainties for Heat Flux 52 15  41.5137037
 Uncertainties for Heat Flux 53 15  39.2564189
 Uncertainties for Heat Flux 54 15  38.2934386
 Uncertainties for Heat Flux 55 15  38.6846517
 Uncertainties for Heat Flux 56 15  37.9514637
 Uncertainties for Heat Flux 57 15  36.352883
 Uncertainties for Heat Flux 58 15  34.8959827
 Uncertainties for Heat Flux 59 15  33.1558285
 Uncertainties for Heat Flux 60 15  31.8323142
 Uncertainties for Heat Flux 61 15  30.6979097
 Uncertainties for Heat Flux 62 15  30.5470606
 Uncertainties for Heat Flux 63 15  30.8235461
 Uncertainties for Heat Flux 64 15  30.6321284
 Uncertainties for Heat Flux 65 15  31.7378979
 Uncertainties for Heat Flux 66 15  31.3422464
 Uncertainties for Heat Flux 67 15  30.8539588
 Uncertainties for Heat Flux 68 15  30.7901313
 Uncertainties for Heat Flux 69 15  28.4916248
 Uncertainties for Heat Flux 70 15  25.8688456
 Uncertainties for Heat Flux 71 15  26.3825404
 Uncertainties for Heat Flux 72 15  20.422919
 Uncertainties for Heat Flux 73 15  20.
 Uncertainties for Heat Flux 74 15  0.
 Uncertainties for Heat Flux 75 15  0.
 Uncertainties for Heat Flux 76 15  0.
 Uncertainties for Heat Flux 77 15  0.
 Uncertainties for Heat Flux 78 15  0.
 Uncertainties for Heat Flux 79 15  0.
 Uncertainties for Heat Flux 80 15  31.5860125
 Uncertainties for Heat Flux 81 15  32.5862331
 Uncertainties for Heat Flux 82 15  33.293368
 Uncertainties for Heat Flux 83 15  32.9914958
 Uncertainties for Heat Flux 84 15  33.0044473
 Uncertainties for Heat Flux 85 15  32.3768482
 Uncertainties for Heat Flux 86 15  31.5784906
 Uncertainties for Heat Flux 87 15  30.8516
 Uncertainties for Heat Flux 88 15  30.4008458
 Uncertainties for Heat Flux 89 15  29.4811401
 Uncertainties for Heat Flux 90 15  27.737819
 Uncertainties for Heat Flux 91 15  27.5811774
 Uncertainties for Heat Flux 92 15  28.4369589
 Uncertainties for Heat Flux -1 16  25.627498
 Uncertainties for Heat Flux 0 16  25.4043554
 Uncertainties for Heat Flux 1 16  26.8588479
 Uncertainties for Heat Flux 2 16  27.3890565
 Uncertainties for Heat Flux 3 16  21.2999509
 Uncertainties for Heat Flux 4 16  0.
 Uncertainties for Heat Flux 5 16  0.
 Uncertainties for Heat Flux 6 16  0.
 Uncertainties for Heat Flux 7 16  0.
 Uncertainties for Heat Flux 8 16  0.
 Uncertainties for Heat Flux 9 16  0.
 Uncertainties for Heat Flux 10 16  29.2596029
 Uncertainties for Heat Flux 11 16  31.3986842
 Uncertainties for Heat Flux 12 16  0.
 Uncertainties for Heat Flux 13 16  25.8624776
 Uncertainties for Heat Flux 14 16  32.0133286
 Uncertainties for Heat Flux 15 16  35.4794381
 Uncertainties for Heat Flux 16 16  37.4846408
 Uncertainties for Heat Flux 17 16  38.3511963
 Uncertainties for Heat Flux 18 16  37.9328658
 Uncertainties for Heat Flux 19 16  36.8660641
 Uncertainties for Heat Flux 20 16  35.7056173
 Uncertainties for Heat Flux 21 16  34.6246891
 Uncertainties for Heat Flux 22 16  34.6645304
 Uncertainties for Heat Flux 23 16  35.3242486
 Uncertainties for Heat Flux 24 16  34.5226949
 Uncertainties for Heat Flux 25 16  34.4433549
 Uncertainties for Heat Flux 26 16  36.9948336
 Uncertainties for Heat Flux 27 16  39.7522081
 Uncertainties for Heat Flux 28 16  42.9410795
 Uncertainties for Heat Flux 29 16  44.4846643
 Uncertainties for Heat Flux 30 16  47.8724543
 Uncertainties for Heat Flux 31 16  0.
 Uncertainties for Heat Flux 32 16  0.
 Uncertainties for Heat Flux 33 16  0.
 Uncertainties for Heat Flux 34 16  0.
 Uncertainties for Heat Flux 35 16  0.
 Uncertainties for Heat Flux 36 16  0.
 Uncertainties for Heat Flux 37 16  0.
 Uncertainties for Heat Flux 38 16  38.6818447
 Uncertainties for Heat Flux 39 16  38.4463533
 Uncertainties for Heat Flux 40 16  38.3856608
 Uncertainties for Heat Flux 41 16  36.6829974
 Uncertainties for Heat Flux 42 16  39.3002618
 Uncertainties for Heat Flux 43 16  41.8930798
 Uncertainties for Heat Flux 44 16  40.3748283
 Uncertainties for Heat Flux 45 16  38.552007
 Uncertainties for Heat Flux 46 16  38.1439298
 Uncertainties for Heat Flux 47 16  37.3821805
 Uncertainties for Heat Flux 48 16  36.4720599
 Uncertainties for Heat Flux 49 16  36.2524223
 Uncertainties for Heat Flux 50 16  36.7952716
 Uncertainties for Heat Flux 51 16  37.4978034
 Uncertainties for Heat Flux 52 16  33.9928258
 Uncertainties for Heat Flux 53 16  29.6113847
 Uncertainties for Heat Flux 54 16  30.2908662
 Uncertainties for Heat Flux 55 16  31.1174819
 Uncertainties for Heat Flux 56 16  30.2089392
 Uncertainties for Heat Flux 57 16  29.1854928
 Uncertainties for Heat Flux 58 16  27.8638261
 Uncertainties for Heat Flux 59 16  26.4621614
 Uncertainties for Heat Flux 60 16  25.3629068
 Uncertainties for Heat Flux 61 16  24.5996539
 Uncertainties for Heat Flux 62 16  25.3278681
 Uncertainties for Heat Flux 63 16  26.0426744
 Uncertainties for Heat Flux 64 16  26.1904017
 Uncertainties for Heat Flux 65 16  27.2256368
 Uncertainties for Heat Flux 66 16  26.3910764
 Uncertainties for Heat Flux 67 16  26.8683535
 Uncertainties for Heat Flux 68 16  26.8118916
 Uncertainties for Heat Flux 69 16  25.5105604
 Uncertainties for Heat Flux 70 16  24.6070627
 Uncertainties for Heat Flux 71 16  22.8554484
 Uncertainties for Heat Flux 72 16  20.
 Uncertainties for Heat Flux 73 16  0.
 Uncertainties for Heat Flux 74 16  0.
 Uncertainties for Heat Flux 75 16  0.
 Uncertainties for Heat Flux 76 16  0.
 Uncertainties for Heat Flux 77 16  0.
 Uncertainties for Heat Flux 78 16  0.
 Uncertainties for Heat Flux 79 16  0.
 Uncertainties for Heat Flux 80 16  0.
 Uncertainties for Heat Flux 81 16  24.9202077
 Uncertainties for Heat Flux 82 16  27.9553515
 Uncertainties for Heat Flux 83 16  27.2879562
 Uncertainties for Heat Flux 84 16  27.1814365
 Uncertainties for Heat Flux 85 16  27.0028152
 Uncertainties for Heat Flux 86 16  27.1528924
 Uncertainties for Heat Flux 87 16  27.0672824
 Uncertainties for Heat Flux 88 16  26.6395283
 Uncertainties for Heat Flux 89 16  25.627498
 Uncertainties for Heat Flux 90 16  25.4043554
 Uncertainties for Heat Flux 91 16  26.8588479
 Uncertainties for Heat Flux 92 16  27.3890565
 Uncertainties for Heat Flux -1 17  26.0831051
 Uncertainties for Heat Flux 0 17  26.2499866
 Uncertainties for Heat Flux 1 17  26.4128462
 Uncertainties for Heat Flux 2 17  24.2171434
 Uncertainties for Heat Flux 3 17  20.
 Uncertainties for Heat Flux 4 17  0.
 Uncertainties for Heat Flux 5 17  0.
 Uncertainties for Heat Flux 6 17  0.
 Uncertainties for Heat Flux 7 17  0.
 Uncertainties for Heat Flux 8 17  0.
 Uncertainties for Heat Flux 9 17  0.
 Uncertainties for Heat Flux 10 17  0.
 Uncertainties for Heat Flux 11 17  27.5101871
 Uncertainties for Heat Flux 12 17  0.
 Uncertainties for Heat Flux 13 17  30.3173413
 Uncertainties for Heat Flux 14 17  29.2656975
 Uncertainties for Heat Flux 15 17  30.5095679
 Uncertainties for Heat Flux 16 17  31.1344248
 Uncertainties for Heat Flux 17 17  30.803805
 Uncertainties for Heat Flux 18 17  29.5512505
 Uncertainties for Heat Flux 19 17  28.6216526
 Uncertainties for Heat Flux 20 17  28.2475688
 Uncertainties for Heat Flux 21 17  29.1234417
 Uncertainties for Heat Flux 22 17  30.5627537
 Uncertainties for Heat Flux 23 17  32.0257517
 Uncertainties for Heat Flux 24 17  32.0043767
 Uncertainties for Heat Flux 25 17  32.382672
 Uncertainties for Heat Flux 26 17  33.8418045
 Uncertainties for Heat Flux 27 17  34.6079261
 Uncertainties for Heat Flux 28 17  34.8322303
 Uncertainties for Heat Flux 29 17  35.3567187
 Uncertainties for Heat Flux 30 17  36.6218611
 Uncertainties for Heat Flux 31 17  38.1322473
 Uncertainties for Heat Flux 32 17  0.
 Uncertainties for Heat Flux 33 17  0.
 Uncertainties for Heat Flux 34 17  0.
 Uncertainties for Heat Flux 35 17  0.
 Uncertainties for Heat Flux 36 17  0.
 Uncertainties for Heat Flux 37 17  30.5642745
 Uncertainties for Heat Flux 38 17  30.9208934
 Uncertainties for Heat Flux 39 17  31.3459746
 Uncertainties for Heat Flux 40 17  31.8576953
 Uncertainties for Heat Flux 41 17  30.6027311
 Uncertainties for Heat Flux 42 17  31.9196568
 Uncertainties for Heat Flux 43 17  33.4995747
 Uncertainties for Heat Flux 44 17  32.2576377
 Uncertainties for Heat Flux 45 17  33.2809232
 Uncertainties for Heat Flux 46 17  32.3055859
 Uncertainties for Heat Flux 47 17  28.9161364
 Uncertainties for Heat Flux 48 17  27.8167674
 Uncertainties for Heat Flux 49 17  28.001723
 Uncertainties for Heat Flux 50 17  28.76146
 Uncertainties for Heat Flux 51 17  28.6522376
 Uncertainties for Heat Flux 52 17  26.8175793
 Uncertainties for Heat Flux 53 17  26.0246474
 Uncertainties for Heat Flux 54 17  24.9690399
 Uncertainties for Heat Flux 55 17  23.8878314
 Uncertainties for Heat Flux 56 17  23.0180353
 Uncertainties for Heat Flux 57 17  22.1027711
 Uncertainties for Heat Flux 58 17  21.7190078
 Uncertainties for Heat Flux 59 17  21.2639046
 Uncertainties for Heat Flux 60 17  20.6909221
 Uncertainties for Heat Flux 61 17  20.8167629
 Uncertainties for Heat Flux 62 17  22.0766455
 Uncertainties for Heat Flux 63 17  22.8951403
 Uncertainties for Heat Flux 64 17  24.2694441
 Uncertainties for Heat Flux 65 17  24.3947137
 Uncertainties for Heat Flux 66 17  24.612985
 Uncertainties for Heat Flux 67 17  25.3967272
 Uncertainties for Heat Flux 68 17  25.1611602
 Uncertainties for Heat Flux 69 17  25.5104256
 Uncertainties for Heat Flux 70 17  24.2400754
 Uncertainties for Heat Flux 71 17  20.
 Uncertainties for Heat Flux 72 17  0.
 Uncertainties for Heat Flux 73 17  0.
 Uncertainties for Heat Flux 74 17  0.
 Uncertainties for Heat Flux 75 17  0.
 Uncertainties for Heat Flux 76 17  0.
 Uncertainties for Heat Flux 77 17  0.
 Uncertainties for Heat Flux 78 17  0.
 Uncertainties for Heat Flux 79 17  0.
 Uncertainties for Heat Flux 80 17  0.
 Uncertainties for Heat Flux 81 17  20.
 Uncertainties for Heat Flux 82 17  23.3454723
 Uncertainties for Heat Flux 83 17  23.3264249
 Uncertainties for Heat Flux 84 17  23.9669024
 Uncertainties for Heat Flux 85 17  24.421821
 Uncertainties for Heat Flux 86 17  24.8348738
 Uncertainties for Heat Flux 87 17  25.8833968
 Uncertainties for Heat Flux 88 17  26.4668516
 Uncertainties for Heat Flux 89 17  26.0831051
 Uncertainties for Heat Flux 90 17  26.2499866
 Uncertainties for Heat Flux 91 17  26.4128462
 Uncertainties for Heat Flux 92 17  24.2171434
 Uncertainties for Heat Flux -1 18  27.5959702
 Uncertainties for Heat Flux 0 18  27.2131271
 Uncertainties for Heat Flux 1 18  25.5711416
 Uncertainties for Heat Flux 2 18  23.0819454
 Uncertainties for Heat Flux 3 18  20.
 Uncertainties for Heat Flux 4 18  0.
 Uncertainties for Heat Flux 5 18  0.
 Uncertainties for Heat Flux 6 18  0.
 Uncertainties for Heat Flux 7 18  0.
 Uncertainties for Heat Flux 8 18  0.
 Uncertainties for Heat Flux 9 18  0.
 Uncertainties for Heat Flux 10 18  0.
 Uncertainties for Heat Flux 11 18  23.5664784
 Uncertainties for Heat Flux 12 18  25.1965262
 Uncertainties for Heat Flux 13 18  25.9809939
 Uncertainties for Heat Flux 14 18  24.1681474
 Uncertainties for Heat Flux 15 18  24.2451089
 Uncertainties for Heat Flux 16 18  24.9589564
 Uncertainties for Heat Flux 17 18  25.7570705
 Uncertainties for Heat Flux 18 18  24.7097054
 Uncertainties for Heat Flux 19 18  23.9010658
 Uncertainties for Heat Flux 20 18  24.284701
 Uncertainties for Heat Flux 21 18  26.1506138
 Uncertainties for Heat Flux 22 18  27.1673177
 Uncertainties for Heat Flux 23 18  27.3427887
 Uncertainties for Heat Flux 24 18  28.2555695
 Uncertainties for Heat Flux 25 18  29.1175652
 Uncertainties for Heat Flux 26 18  28.8332195
 Uncertainties for Heat Flux 27 18  25.3295523
 Uncertainties for Heat Flux 28 18  23.1957982
 Uncertainties for Heat Flux 29 18  23.1951075
 Uncertainties for Heat Flux 30 18  22.6723687
 Uncertainties for Heat Flux 31 18  24.012619
 Uncertainties for Heat Flux 32 18  27.5954507
 Uncertainties for Heat Flux 33 18  30.2352435
 Uncertainties for Heat Flux 34 18  0.
 Uncertainties for Heat Flux 35 18  0.
 Uncertainties for Heat Flux 36 18  0.
 Uncertainties for Heat Flux 37 18  23.5817312
 Uncertainties for Heat Flux 38 18  21.2846855
 Uncertainties for Heat Flux 39 18  25.9630502
 Uncertainties for Heat Flux 40 18  25.2937921
 Uncertainties for Heat Flux 41 18  24.9521224
 Uncertainties for Heat Flux 42 18  26.7532991
 Uncertainties for Heat Flux 43 18  27.513216
 Uncertainties for Heat Flux 44 18  27.2717444
 Uncertainties for Heat Flux 45 18  26.9698734
 Uncertainties for Heat Flux 46 18  25.3921458
 Uncertainties for Heat Flux 47 18  25.1602338
 Uncertainties for Heat Flux 48 18  24.869222
 Uncertainties for Heat Flux 49 18  24.4177818
 Uncertainties for Heat Flux 50 18  24.0597159
 Uncertainties for Heat Flux 51 18  22.9177405
 Uncertainties for Heat Flux 52 18  22.9356543
 Uncertainties for Heat Flux 53 18  22.7222656
 Uncertainties for Heat Flux 54 18  21.2643369
 Uncertainties for Heat Flux 55 18  20.
 Uncertainties for Heat Flux 56 18  20.
 Uncertainties for Heat Flux 57 18  20.
 Uncertainties for Heat Flux 58 18  20.
 Uncertainties for Heat Flux 59 18  20.
 Uncertainties for Heat Flux 60 18  20.
 Uncertainties for Heat Flux 61 18  20.
 Uncertainties for Heat Flux 62 18  20.1499952
 Uncertainties for Heat Flux 63 18  20.7657916
 Uncertainties for Heat Flux 64 18  21.9394601
 Uncertainties for Heat Flux 65 18  22.5239016
 Uncertainties for Heat Flux 66 18  23.3878377
 Uncertainties for Heat Flux 67 18  24.0749365
 Uncertainties for Heat Flux 68 18  25.2284743
 Uncertainties for Heat Flux 69 18  24.7333075
 Uncertainties for Heat Flux 70 18  20.4028641
 Uncertainties for Heat Flux 71 18  20.
 Uncertainties for Heat Flux 72 18  0.
 Uncertainties for Heat Flux 73 18  0.
 Uncertainties for Heat Flux 74 18  0.
 Uncertainties for Heat Flux 75 18  0.
 Uncertainties for Heat Flux 76 18  0.
 Uncertainties for Heat Flux 77 18  0.
 Uncertainties for Heat Flux 78 18  0.
 Uncertainties for Heat Flux 79 18  0.
 Uncertainties for Heat Flux 80 18  0.
 Uncertainties for Heat Flux 81 18  0.
 Uncertainties for Heat Flux 82 18  20.
 Uncertainties for Heat Flux 83 18  20.9758581
 Uncertainties for Heat Flux 84 18  22.1215944
 Uncertainties for Heat Flux 85 18  23.2629916
 Uncertainties for Heat Flux 86 18  23.6498184
 Uncertainties for Heat Flux 87 18  25.1667792
 Uncertainties for Heat Flux 88 18  26.7656047
 Uncertainties for Heat Flux 89 18  27.5959702
 Uncertainties for Heat Flux 90 18  27.2131271
 Uncertainties for Heat Flux 91 18  25.5711416
 Uncertainties for Heat Flux 92 18  23.0819454
 Uncertainties for Heat Flux -1 19  24.4519157
 Uncertainties for Heat Flux 0 19  23.7966855
 Uncertainties for Heat Flux 1 19  21.7866844
 Uncertainties for Heat Flux 2 19  20.
 Uncertainties for Heat Flux 3 19  20.
 Uncertainties for Heat Flux 4 19  0.
 Uncertainties for Heat Flux 5 19  0.
 Uncertainties for Heat Flux 6 19  0.
 Uncertainties for Heat Flux 7 19  0.
 Uncertainties for Heat Flux 8 19  0.
 Uncertainties for Heat Flux 9 19  0.
 Uncertainties for Heat Flux 10 19  0.
 Uncertainties for Heat Flux 11 19  24.0690594
 Uncertainties for Heat Flux 12 19  24.3727169
 Uncertainties for Heat Flux 13 19  23.2721341
 Uncertainties for Heat Flux 14 19  20.5733983
 Uncertainties for Heat Flux 15 19  21.0451365
 Uncertainties for Heat Flux 16 19  23.1293939
 Uncertainties for Heat Flux 17 19  24.5963408
 Uncertainties for Heat Flux 18 19  23.1301867
 Uncertainties for Heat Flux 19 19  22.4838409
 Uncertainties for Heat Flux 20 19  23.9395383
 Uncertainties for Heat Flux 21 19  24.8431333
 Uncertainties for Heat Flux 22 19  24.5627295
 Uncertainties for Heat Flux 23 19  25.5212358
 Uncertainties for Heat Flux 24 19  25.71536
 Uncertainties for Heat Flux 25 19  23.3240852
 Uncertainties for Heat Flux 26 19  20.
 Uncertainties for Heat Flux 27 19  20.
 Uncertainties for Heat Flux 28 19  0.
 Uncertainties for Heat Flux 29 19  0.
 Uncertainties for Heat Flux 30 19  0.
 Uncertainties for Heat Flux 31 19  20.
 Uncertainties for Heat Flux 32 19  20.
 Uncertainties for Heat Flux 33 19  21.9380382
 Uncertainties for Heat Flux 34 19  0.
 Uncertainties for Heat Flux 35 19  0.
 Uncertainties for Heat Flux 36 19  0.
 Uncertainties for Heat Flux 37 19  0.
 Uncertainties for Heat Flux 38 19  0.
 Uncertainties for Heat Flux 39 19  24.3124517
 Uncertainties for Heat Flux 40 19  22.8337873
 Uncertainties for Heat Flux 41 19  24.5702496
 Uncertainties for Heat Flux 42 19  24.5313536
 Uncertainties for Heat Flux 43 19  23.2645499
 Uncertainties for Heat Flux 44 19  21.6162612
 Uncertainties for Heat Flux 45 19  20.7451623
 Uncertainties for Heat Flux 46 19  20.6551609
 Uncertainties for Heat Flux 47 19  20.5498638
 Uncertainties for Heat Flux 48 19  20.1958666
 Uncertainties for Heat Flux 49 19  20.4913864
 Uncertainties for Heat Flux 50 19  20.
 Uncertainties for Heat Flux 51 19  20.
 Uncertainties for Heat Flux 52 19  20.
 Uncertainties for Heat Flux 53 19  20.
 Uncertainties for Heat Flux 54 19  20.
 Uncertainties for Heat Flux 55 19  20.
 Uncertainties for Heat Flux 56 19  20.
 Uncertainties for Heat Flux 57 19  20.
 Uncertainties for Heat Flux 58 19  20.
 Uncertainties for Heat Flux 59 19  20.
 Uncertainties for Heat Flux 60 19  20.
 Uncertainties for Heat Flux 61 19  20.
 Uncertainties for Heat Flux 62 19  20.
 Uncertainties for Heat Flux 63 19  20.
 Uncertainties for Heat Flux 64 19  20.
 Uncertainties for Heat Flux 65 19  20.
 Uncertainties for Heat Flux 66 19  20.
 Uncertainties for Heat Flux 67 19  20.
 Uncertainties for Heat Flux 68 19  20.
 Uncertainties for Heat Flux 69 19  20.
 Uncertainties for Heat Flux 70 19  20.
 Uncertainties for Heat Flux 71 19  0.
 Uncertainties for Heat Flux 72 19  0.
 Uncertainties for Heat Flux 73 19  0.
 Uncertainties for Heat Flux 74 19  0.
 Uncertainties for Heat Flux 75 19  0.
 Uncertainties for Heat Flux 76 19  0.
 Uncertainties for Heat Flux 77 19  0.
 Uncertainties for Heat Flux 78 19  0.
 Uncertainties for Heat Flux 79 19  0.
 Uncertainties for Heat Flux 80 19  0.
 Uncertainties for Heat Flux 81 19  0.
 Uncertainties for Heat Flux 82 19  20.
 Uncertainties for Heat Flux 83 19  20.
 Uncertainties for Heat Flux 84 19  20.
 Uncertainties for Heat Flux 85 19  20.
 Uncertainties for Heat Flux 86 19  20.
 Uncertainties for Heat Flux 87 19  21.3505831
 Uncertainties for Heat Flux 88 19  23.5740732
 Uncertainties for Heat Flux 89 19  24.4519157
 Uncertainties for Heat Flux 90 19  23.7966855
 Uncertainties for Heat Flux 91 19  21.7866844
 Uncertainties for Heat Flux 92 19  20.
 Uncertainties for Heat Flux -1 20  20.
 Uncertainties for Heat Flux 0 20  20.
 Uncertainties for Heat Flux 1 20  20.
 Uncertainties for Heat Flux 2 20  20.
 Uncertainties for Heat Flux 3 20  20.
 Uncertainties for Heat Flux 4 20  0.
 Uncertainties for Heat Flux 5 20  0.
 Uncertainties for Heat Flux 6 20  0.
 Uncertainties for Heat Flux 7 20  0.
 Uncertainties for Heat Flux 8 20  0.
 Uncertainties for Heat Flux 9 20  0.
 Uncertainties for Heat Flux 10 20  0.
 Uncertainties for Heat Flux 11 20  20.
 Uncertainties for Heat Flux 12 20  20.9989306
 Uncertainties for Heat Flux 13 20  20.4757258
 Uncertainties for Heat Flux 14 20  20.
 Uncertainties for Heat Flux 15 20  20.2603455
 Uncertainties for Heat Flux 16 20  21.2982499
 Uncertainties for Heat Flux 17 20  21.8524323
 Uncertainties for Heat Flux 18 20  21.2043285
 Uncertainties for Heat Flux 19 20  20.9608301
 Uncertainties for Heat Flux 20 20  20.6034406
 Uncertainties for Heat Flux 21 20  20.
 Uncertainties for Heat Flux 22 20  20.
 Uncertainties for Heat Flux 23 20  20.
 Uncertainties for Heat Flux 24 20  20.
 Uncertainties for Heat Flux 25 20  20.
 Uncertainties for Heat Flux 26 20  0.
 Uncertainties for Heat Flux 27 20  0.
 Uncertainties for Heat Flux 28 20  0.
 Uncertainties for Heat Flux 29 20  0.
 Uncertainties for Heat Flux 30 20  0.
 Uncertainties for Heat Flux 31 20  0.
 Uncertainties for Heat Flux 32 20  20.
 Uncertainties for Heat Flux 33 20  0.
 Uncertainties for Heat Flux 34 20  20.
 Uncertainties for Heat Flux 35 20  20.
 Uncertainties for Heat Flux 36 20  20.
 Uncertainties for Heat Flux 37 20  23.1241671
 Uncertainties for Heat Flux 38 20  25.5274598
 Uncertainties for Heat Flux 39 20  20.
 Uncertainties for Heat Flux 40 20  20.
 Uncertainties for Heat Flux 41 20  20.
 Uncertainties for Heat Flux 42 20  20.
 Uncertainties for Heat Flux 43 20  20.
 Uncertainties for Heat Flux 44 20  20.
 Uncertainties for Heat Flux 45 20  20.
 Uncertainties for Heat Flux 46 20  20.
 Uncertainties for Heat Flux 47 20  20.
 Uncertainties for Heat Flux 48 20  20.
 Uncertainties for Heat Flux 49 20  20.
 Uncertainties for Heat Flux 50 20  20.
 Uncertainties for Heat Flux 51 20  20.
 Uncertainties for Heat Flux 52 20  20.
 Uncertainties for Heat Flux 53 20  20.
 Uncertainties for Heat Flux 54 20  20.
 Uncertainties for Heat Flux 55 20  20.
 Uncertainties for Heat Flux 56 20  20.
 Uncertainties for Heat Flux 57 20  20.
 Uncertainties for Heat Flux 58 20  20.
 Uncertainties for Heat Flux 59 20  20.
 Uncertainties for Heat Flux 60 20  20.
 Uncertainties for Heat Flux 61 20  20.
 Uncertainties for Heat Flux 62 20  20.
 Uncertainties for Heat Flux 63 20  20.
 Uncertainties for Heat Flux 64 20  20.
 Uncertainties for Heat Flux 65 20  20.
 Uncertainties for Heat Flux 66 20  20.
 Uncertainties for Heat Flux 67 20  20.
 Uncertainties for Heat Flux 68 20  20.
 Uncertainties for Heat Flux 69 20  20.
 Uncertainties for Heat Flux 70 20  20.
 Uncertainties for Heat Flux 71 20  0.
 Uncertainties for Heat Flux 72 20  0.
 Uncertainties for Heat Flux 73 20  0.
 Uncertainties for Heat Flux 74 20  0.
 Uncertainties for Heat Flux 75 20  0.
 Uncertainties for Heat Flux 76 20  0.
 Uncertainties for Heat Flux 77 20  0.
 Uncertainties for Heat Flux 78 20  0.
 Uncertainties for Heat Flux 79 20  0.
 Uncertainties for Heat Flux 80 20  20.
 Uncertainties for Heat Flux 81 20  20.
 Uncertainties for Heat Flux 82 20  20.
 Uncertainties for Heat Flux 83 20  20.
 Uncertainties for Heat Flux 84 20  20.
 Uncertainties for Heat Flux 85 20  20.
 Uncertainties for Heat Flux 86 20  20.
 Uncertainties for Heat Flux 87 20  20.
 Uncertainties for Heat Flux 88 20  20.
 Uncertainties for Heat Flux 89 20  20.
 Uncertainties for Heat Flux 90 20  20.
 Uncertainties for Heat Flux 91 20  20.
 Uncertainties for Heat Flux 92 20  20.
 Uncertainties for Heat Flux -1 21  20.
 Uncertainties for Heat Flux 0 21  20.
 Uncertainties for Heat Flux 1 21  20.
 Uncertainties for Heat Flux 2 21  20.
 Uncertainties for Heat Flux 3 21  20.
 Uncertainties for Heat Flux 4 21  0.
 Uncertainties for Heat Flux 5 21  0.
 Uncertainties for Heat Flux 6 21  0.
 Uncertainties for Heat Flux 7 21  0.
 Uncertainties for Heat Flux 8 21  0.
 Uncertainties for Heat Flux 9 21  0.
 Uncertainties for Heat Flux 10 21  0.
 Uncertainties for Heat Flux 11 21  0.
 Uncertainties for Heat Flux 12 21  20.
 Uncertainties for Heat Flux 13 21  21.5485245
 Uncertainties for Heat Flux 14 21  21.0837523
 Uncertainties for Heat Flux 15 21  20.5793308
 Uncertainties for Heat Flux 16 21  20.
 Uncertainties for Heat Flux 17 21  20.
 Uncertainties for Heat Flux 18 21  20.
 Uncertainties for Heat Flux 19 21  20.7142913
 Uncertainties for Heat Flux 20 21  22.2306118
 Uncertainties for Heat Flux 21 21  22.0271956
 Uncertainties for Heat Flux 22 21  20.8157015
 Uncertainties for Heat Flux 23 21  20.
 Uncertainties for Heat Flux 24 21  20.
 Uncertainties for Heat Flux 25 21  20.
 Uncertainties for Heat Flux 26 21  0.
 Uncertainties for Heat Flux 27 21  0.
 Uncertainties for Heat Flux 28 21  0.
 Uncertainties for Heat Flux 29 21  0.
 Uncertainties for Heat Flux 30 21  0.
 Uncertainties for Heat Flux 31 21  20.
 Uncertainties for Heat Flux 32 21  20.
 Uncertainties for Heat Flux 33 21  20.
 Uncertainties for Heat Flux 34 21  20.
 Uncertainties for Heat Flux 35 21  20.
 Uncertainties for Heat Flux 36 21  20.
 Uncertainties for Heat Flux 37 21  20.
 Uncertainties for Heat Flux 38 21  20.
 Uncertainties for Heat Flux 39 21  20.
 Uncertainties for Heat Flux 40 21  20.
 Uncertainties for Heat Flux 41 21  20.
 Uncertainties for Heat Flux 42 21  20.
 Uncertainties for Heat Flux 43 21  20.
 Uncertainties for Heat Flux 44 21  20.
 Uncertainties for Heat Flux 45 21  20.
 Uncertainties for Heat Flux 46 21  20.
 Uncertainties for Heat Flux 47 21  20.
 Uncertainties for Heat Flux 48 21  20.
 Uncertainties for Heat Flux 49 21  20.
 Uncertainties for Heat Flux 50 21  20.
 Uncertainties for Heat Flux 51 21  20.
 Uncertainties for Heat Flux 52 21  20.
 Uncertainties for Heat Flux 53 21  20.
 Uncertainties for Heat Flux 54 21  20.
 Uncertainties for Heat Flux 55 21  20.
 Uncertainties for Heat Flux 56 21  20.
 Uncertainties for Heat Flux 57 21  20.
 Uncertainties for Heat Flux 58 21  20.
 Uncertainties for Heat Flux 59 21  20.
 Uncertainties for Heat Flux 60 21  20.
 Uncertainties for Heat Flux 61 21  20.
 Uncertainties for Heat Flux 62 21  20.
 Uncertainties for Heat Flux 63 21  20.
 Uncertainties for Heat Flux 64 21  20.
 Uncertainties for Heat Flux 65 21  20.
 Uncertainties for Heat Flux 66 21  20.
 Uncertainties for Heat Flux 67 21  20.
 Uncertainties for Heat Flux 68 21  20.
 Uncertainties for Heat Flux 69 21  20.
 Uncertainties for Heat Flux 70 21  20.
 Uncertainties for Heat Flux 71 21  0.
 Uncertainties for Heat Flux 72 21  0.
 Uncertainties for Heat Flux 73 21  0.
 Uncertainties for Heat Flux 74 21  0.
 Uncertainties for Heat Flux 75 21  0.
 Uncertainties for Heat Flux 76 21  0.
 Uncertainties for Heat Flux 77 21  0.
 Uncertainties for Heat Flux 78 21  0.
 Uncertainties for Heat Flux 79 21  20.
 Uncertainties for Heat Flux 80 21  20.
 Uncertainties for Heat Flux 81 21  20.
 Uncertainties for Heat Flux 82 21  20.
 Uncertainties for Heat Flux 83 21  20.
 Uncertainties for Heat Flux 84 21  20.
 Uncertainties for Heat Flux 85 21  20.
 Uncertainties for Heat Flux 86 21  20.
 Uncertainties for Heat Flux 87 21  20.
 Uncertainties for Heat Flux 88 21  20.
 Uncertainties for Heat Flux 89 21  20.
 Uncertainties for Heat Flux 90 21  20.
 Uncertainties for Heat Flux 91 21  20.
 Uncertainties for Heat Flux 92 21  20.
 Uncertainties for Heat Flux -1 22  20.
 Uncertainties for Heat Flux 0 22  20.
 Uncertainties for Heat Flux 1 22  20.
 Uncertainties for Heat Flux 2 22  0.
 Uncertainties for Heat Flux 3 22  0.
 Uncertainties for Heat Flux 4 22  0.
 Uncertainties for Heat Flux 5 22  0.
 Uncertainties for Heat Flux 6 22  0.
 Uncertainties for Heat Flux 7 22  0.
 Uncertainties for Heat Flux 8 22  0.
 Uncertainties for Heat Flux 9 22  0.
 Uncertainties for Heat Flux 10 22  0.
 Uncertainties for Heat Flux 11 22  0.
 Uncertainties for Heat Flux 12 22  0.
 Uncertainties for Heat Flux 13 22  20.
 Uncertainties for Heat Flux 14 22  26.5299206
 Uncertainties for Heat Flux 15 22  24.9838931
 Uncertainties for Heat Flux 16 22  22.4790707
 Uncertainties for Heat Flux 17 22  20.9003731
 Uncertainties for Heat Flux 18 22  20.479832
 Uncertainties for Heat Flux 19 22  20.2534253
 Uncertainties for Heat Flux 20 22  20.
 Uncertainties for Heat Flux 21 22  20.
 Uncertainties for Heat Flux 22 22  25.5594349
 Uncertainties for Heat Flux 23 22  22.9319379
 Uncertainties for Heat Flux 24 22  20.
 Uncertainties for Heat Flux 25 22  0.
 Uncertainties for Heat Flux 26 22  0.
 Uncertainties for Heat Flux 27 22  0.
 Uncertainties for Heat Flux 28 22  20.8721412
 Uncertainties for Heat Flux 29 22  20.
 Uncertainties for Heat Flux 30 22  0.
 Uncertainties for Heat Flux 31 22  20.
 Uncertainties for Heat Flux 32 22  20.
 Uncertainties for Heat Flux 33 22  20.
 Uncertainties for Heat Flux 34 22  20.
 Uncertainties for Heat Flux 35 22  20.
 Uncertainties for Heat Flux 36 22  20.
 Uncertainties for Heat Flux 37 22  20.
 Uncertainties for Heat Flux 38 22  20.
 Uncertainties for Heat Flux 39 22  20.
 Uncertainties for Heat Flux 40 22  20.
 Uncertainties for Heat Flux 41 22  20.
 Uncertainties for Heat Flux 42 22  20.
 Uncertainties for Heat Flux 43 22  20.
 Uncertainties for Heat Flux 44 22  20.
 Uncertainties for Heat Flux 45 22  20.
 Uncertainties for Heat Flux 46 22  20.
 Uncertainties for Heat Flux 47 22  20.
 Uncertainties for Heat Flux 48 22  20.
 Uncertainties for Heat Flux 49 22  20.
 Uncertainties for Heat Flux 50 22  20.
 Uncertainties for Heat Flux 51 22  20.
 Uncertainties for Heat Flux 52 22  20.
 Uncertainties for Heat Flux 53 22  20.
 Uncertainties for Heat Flux 54 22  20.
 Uncertainties for Heat Flux 55 22  20.
 Uncertainties for Heat Flux 56 22  20.
 Uncertainties for Heat Flux 57 22  20.
 Uncertainties for Heat Flux 58 22  20.
 Uncertainties for Heat Flux 59 22  20.
 Uncertainties for Heat Flux 60 22  20.
 Uncertainties for Heat Flux 61 22  20.
 Uncertainties for Heat Flux 62 22  20.
 Uncertainties for Heat Flux 63 22  20.
 Uncertainties for Heat Flux 64 22  20.
 Uncertainties for Heat Flux 65 22  20.
 Uncertainties for Heat Flux 66 22  20.
 Uncertainties for Heat Flux 67 22  20.
 Uncertainties for Heat Flux 68 22  20.
 Uncertainties for Heat Flux 69 22  20.
 Uncertainties for Heat Flux 70 22  20.
 Uncertainties for Heat Flux 71 22  0.
 Uncertainties for Heat Flux 72 22  0.
 Uncertainties for Heat Flux 73 22  0.
 Uncertainties for Heat Flux 74 22  0.
 Uncertainties for Heat Flux 75 22  0.
 Uncertainties for Heat Flux 76 22  0.
 Uncertainties for Heat Flux 77 22  20.
 Uncertainties for Heat Flux 78 22  20.
 Uncertainties for Heat Flux 79 22  20.
 Uncertainties for Heat Flux 80 22  20.
 Uncertainties for Heat Flux 81 22  20.
 Uncertainties for Heat Flux 82 22  20.
 Uncertainties for Heat Flux 83 22  20.
 Uncertainties for Heat Flux 84 22  20.
 Uncertainties for Heat Flux 85 22  20.
 Uncertainties for Heat Flux 86 22  20.
 Uncertainties for Heat Flux 87 22  20.
 Uncertainties for Heat Flux 88 22  20.
 Uncertainties for Heat Flux 89 22  20.
 Uncertainties for Heat Flux 90 22  20.
 Uncertainties for Heat Flux 91 22  20.
 Uncertainties for Heat Flux 92 22  0.
 Uncertainties for Heat Flux -1 23  0.
 Uncertainties for Heat Flux 0 23  0.
 Uncertainties for Heat Flux 1 23  0.
 Uncertainties for Heat Flux 2 23  0.
 Uncertainties for Heat Flux 3 23  0.
 Uncertainties for Heat Flux 4 23  0.
 Uncertainties for Heat Flux 5 23  0.
 Uncertainties for Heat Flux 6 23  0.
 Uncertainties for Heat Flux 7 23  0.
 Uncertainties for Heat Flux 8 23  0.
 Uncertainties for Heat Flux 9 23  0.
 Uncertainties for Heat Flux 10 23  0.
 Uncertainties for Heat Flux 11 23  0.
 Uncertainties for Heat Flux 12 23  0.
 Uncertainties for Heat Flux 13 23  20.
 Uncertainties for Heat Flux 14 23  29.5637614
 Uncertainties for Heat Flux 15 23  30.5127201
 Uncertainties for Heat Flux 16 23  27.3062725
 Uncertainties for Heat Flux 17 23  25.9259224
 Uncertainties for Heat Flux 18 23  23.8527431
 Uncertainties for Heat Flux 19 23  20.
 Uncertainties for Heat Flux 20 23  0.
 Uncertainties for Heat Flux 21 23  24.3440946
 Uncertainties for Heat Flux 22 23  28.3084901
 Uncertainties for Heat Flux 23 23  27.7737573
 Uncertainties for Heat Flux 24 23  25.8759047
 Uncertainties for Heat Flux 25 23  0.
 Uncertainties for Heat Flux 26 23  0.
 Uncertainties for Heat Flux 27 23  0.
 Uncertainties for Heat Flux 28 23  25.5677878
 Uncertainties for Heat Flux 29 23  27.2868417
 Uncertainties for Heat Flux 30 23  24.5093355
 Uncertainties for Heat Flux 31 23  0.
 Uncertainties for Heat Flux 32 23  0.
 Uncertainties for Heat Flux 33 23  24.5809574
 Uncertainties for Heat Flux 34 23  23.5569134
 Uncertainties for Heat Flux 35 23  21.9269574
 Uncertainties for Heat Flux 36 23  21.7123089
 Uncertainties for Heat Flux 37 23  21.6613197
 Uncertainties for Heat Flux 38 23  21.74311
 Uncertainties for Heat Flux 39 23  21.8599955
 Uncertainties for Heat Flux 40 23  22.1008078
 Uncertainties for Heat Flux 41 23  21.8224131
 Uncertainties for Heat Flux 42 23  20.3753649
 Uncertainties for Heat Flux 43 23  20.
 Uncertainties for Heat Flux 44 23  20.
 Uncertainties for Heat Flux 45 23  20.
 Uncertainties for Heat Flux 46 23  20.
 Uncertainties for Heat Flux 47 23  20.0496025
 Uncertainties for Heat Flux 48 23  20.4341691
 Uncertainties for Heat Flux 49 23  20.254687
 Uncertainties for Heat Flux 50 23  21.3300104
 Uncertainties for Heat Flux 51 23  22.3768403
 Uncertainties for Heat Flux 52 23  21.8521204
 Uncertainties for Heat Flux 53 23  20.5961803
 Uncertainties for Heat Flux 54 23  20.1473223
 Uncertainties for Heat Flux 55 23  20.
 Uncertainties for Heat Flux 56 23  20.
 Uncertainties for Heat Flux 57 23  20.
 Uncertainties for Heat Flux 58 23  20.
 Uncertainties for Heat Flux 59 23  20.
 Uncertainties for Heat Flux 60 23  20.
 Uncertainties for Heat Flux 61 23  20.
 Uncertainties for Heat Flux 62 23  20.
 Uncertainties for Heat Flux 63 23  20.
 Uncertainties for Heat Flux 64 23  21.1356405
 Uncertainties for Heat Flux 65 23  22.8049831
 Uncertainties for Heat Flux 66 23  22.2122987
 Uncertainties for Heat Flux 67 23  20.5580196
 Uncertainties for Heat Flux 68 23  20.
 Uncertainties for Heat Flux 69 23  20.
 Uncertainties for Heat Flux 70 23  0.
 Uncertainties for Heat Flux 71 23  0.
 Uncertainties for Heat Flux 72 23  0.
 Uncertainties for Heat Flux 73 23  0.
 Uncertainties for Heat Flux 74 23  20.
 Uncertainties for Heat Flux 75 23  20.
 Uncertainties for Heat Flux 76 23  20.
 Uncertainties for Heat Flux 77 23  20.
 Uncertainties for Heat Flux 78 23  22.0847276
 Uncertainties for Heat Flux 79 23  22.6511456
 Uncertainties for Heat Flux 80 23  23.4385357
 Uncertainties for Heat Flux 81 23  24.4788373
 Uncertainties for Heat Flux 82 23  25.1540985
 Uncertainties for Heat Flux 83 23  25.3800081
 Uncertainties for Heat Flux 84 23  24.6742573
 Uncertainties for Heat Flux 85 23  23.0606283
 Uncertainties for Heat Flux 86 23  21.3175233
 Uncertainties for Heat Flux 87 23  0.
 Uncertainties for Heat Flux 88 23  0.
 Uncertainties for Heat Flux 89 23  0.
 Uncertainties for Heat Flux 90 23  0.
 Uncertainties for Heat Flux 91 23  0.
 Uncertainties for Heat Flux 92 23  0.
 Uncertainties for Heat Flux -1 24  0.
 Uncertainties for Heat Flux 0 24  0.
 Uncertainties for Heat Flux 1 24  0.
 Uncertainties for Heat Flux 2 24  0.
 Uncertainties for Heat Flux 3 24  0.
 Uncertainties for Heat Flux 4 24  0.
 Uncertainties for Heat Flux 5 24  0.
 Uncertainties for Heat Flux 6 24  0.
 Uncertainties for Heat Flux 7 24  0.
 Uncertainties for Heat Flux 8 24  0.
 Uncertainties for Heat Flux 9 24  0.
 Uncertainties for Heat Flux 10 24  0.
 Uncertainties for Heat Flux 11 24  0.
 Uncertainties for Heat Flux 12 24  0.
 Uncertainties for Heat Flux 13 24  25.9419496
 Uncertainties for Heat Flux 14 24  31.7018134
 Uncertainties for Heat Flux 15 24  33.2505201
 Uncertainties for Heat Flux 16 24  31.1168722
 Uncertainties for Heat Flux 17 24  29.3169136
 Uncertainties for Heat Flux 18 24  25.9978682
 Uncertainties for Heat Flux 19 24  20.
 Uncertainties for Heat Flux 20 24  0.
 Uncertainties for Heat Flux 21 24  24.0954281
 Uncertainties for Heat Flux 22 24  33.0253493
 Uncertainties for Heat Flux 23 24  33.1490828
 Uncertainties for Heat Flux 24 24  24.9395685
 Uncertainties for Heat Flux 25 24  0.
 Uncertainties for Heat Flux 26 24  0.
 Uncertainties for Heat Flux 27 24  0.
 Uncertainties for Heat Flux 28 24  24.5133905
 Uncertainties for Heat Flux 29 24  32.168354
 Uncertainties for Heat Flux 30 24  30.7870992
 Uncertainties for Heat Flux 31 24  0.
 Uncertainties for Heat Flux 32 24  33.5774244
 Uncertainties for Heat Flux 33 24  33.2743893
 Uncertainties for Heat Flux 34 24  31.4506671
 Uncertainties for Heat Flux 35 24  28.313886
 Uncertainties for Heat Flux 36 24  25.9451771
 Uncertainties for Heat Flux 37 24  25.7588641
 Uncertainties for Heat Flux 38 24  26.908521
 Uncertainties for Heat Flux 39 24  27.326491
 Uncertainties for Heat Flux 40 24  26.9134935
 Uncertainties for Heat Flux 41 24  26.059817
 Uncertainties for Heat Flux 42 24  25.3185978
 Uncertainties for Heat Flux 43 24  24.7746995
 Uncertainties for Heat Flux 44 24  24.5869929
 Uncertainties for Heat Flux 45 24  24.0384928
 Uncertainties for Heat Flux 46 24  23.5598138
 Uncertainties for Heat Flux 47 24  23.3085766
 Uncertainties for Heat Flux 48 24  23.8853353
 Uncertainties for Heat Flux 49 24  24.5519155
 Uncertainties for Heat Flux 50 24  24.9476643
 Uncertainties for Heat Flux 51 24  25.8866622
 Uncertainties for Heat Flux 52 24  25.6867504
 Uncertainties for Heat Flux 53 24  24.0348434
 Uncertainties for Heat Flux 54 24  23.6092052
 Uncertainties for Heat Flux 55 24  23.702858
 Uncertainties for Heat Flux 56 24  24.0433871
 Uncertainties for Heat Flux 57 24  23.7412469
 Uncertainties for Heat Flux 58 24  24.1194315
 Uncertainties for Heat Flux 59 24  25.3342037
 Uncertainties for Heat Flux 60 24  25.360817
 Uncertainties for Heat Flux 61 24  24.6566118
 Uncertainties for Heat Flux 62 24  24.9737809
 Uncertainties for Heat Flux 63 24  24.4190731
 Uncertainties for Heat Flux 64 24  23.6189562
 Uncertainties for Heat Flux 65 24  25.2838415
 Uncertainties for Heat Flux 66 24  28.8404465
 Uncertainties for Heat Flux 67 24  26.5027504
 Uncertainties for Heat Flux 68 24  23.5942141
 Uncertainties for Heat Flux 69 24  0.
 Uncertainties for Heat Flux 70 24  22.425532
 Uncertainties for Heat Flux 71 24  24.8585498
 Uncertainties for Heat Flux 72 24  22.8696772
 Uncertainties for Heat Flux 73 24  21.2628679
 Uncertainties for Heat Flux 74 24  20.7160578
 Uncertainties for Heat Flux 75 24  21.0595137
 Uncertainties for Heat Flux 76 24  22.7931919
 Uncertainties for Heat Flux 77 24  23.4581935
 Uncertainties for Heat Flux 78 24  24.2408276
 Uncertainties for Heat Flux 79 24  24.908919
 Uncertainties for Heat Flux 80 24  25.0352421
 Uncertainties for Heat Flux 81 24  25.8948733
 Uncertainties for Heat Flux 82 24  25.5395292
 Uncertainties for Heat Flux 83 24  26.0130138
 Uncertainties for Heat Flux 84 24  27.5086549
 Uncertainties for Heat Flux 85 24  29.2803237
 Uncertainties for Heat Flux 86 24  28.5405718
 Uncertainties for Heat Flux 87 24  0.
 Uncertainties for Heat Flux 88 24  0.
 Uncertainties for Heat Flux 89 24  0.
 Uncertainties for Heat Flux 90 24  0.
 Uncertainties for Heat Flux 91 24  0.
 Uncertainties for Heat Flux 92 24  0.
 Uncertainties for Heat Flux -1 25  0.
 Uncertainties for Heat Flux 0 25  0.
 Uncertainties for Heat Flux 1 25  0.
 Uncertainties for Heat Flux 2 25  0.
 Uncertainties for Heat Flux 3 25  0.
 Uncertainties for Heat Flux 4 25  0.
 Uncertainties for Heat Flux 5 25  0.
 Uncertainties for Heat Flux 6 25  0.
 Uncertainties for Heat Flux 7 25  0.
 Uncertainties for Heat Flux 8 25  0.
 Uncertainties for Heat Flux 9 25  0.
 Uncertainties for Heat Flux 10 25  0.
 Uncertainties for Heat Flux 11 25  0.
 Uncertainties for Heat Flux 12 25  0.
 Uncertainties for Heat Flux 13 25  0.
 Uncertainties for Heat Flux 14 25  0.
 Uncertainties for Heat Flux 15 25  33.0146798
 Uncertainties for Heat Flux 16 25  32.4209849
 Uncertainties for Heat Flux 17 25  32.3204308
 Uncertainties for Heat Flux 18 25  28.0337791
 Uncertainties for Heat Flux 19 25  0.
 Uncertainties for Heat Flux 20 25  0.
 Uncertainties for Heat Flux 21 25  0.
 Uncertainties for Heat Flux 22 25  28.5444647
 Uncertainties for Heat Flux 23 25  34.6243159
 Uncertainties for Heat Flux 24 25  22.9437252
 Uncertainties for Heat Flux 25 25  0.
 Uncertainties for Heat Flux 26 25  0.
 Uncertainties for Heat Flux 27 25  0.
 Uncertainties for Heat Flux 28 25  41.6649017
 Uncertainties for Heat Flux 29 25  41.6344465
 Uncertainties for Heat Flux 30 25  38.7621568
 Uncertainties for Heat Flux 31 25  44.7379218
 Uncertainties for Heat Flux 32 25  46.4910049
 Uncertainties for Heat Flux 33 25  44.2776864
 Uncertainties for Heat Flux 34 25  41.4041093
 Uncertainties for Heat Flux 35 25  38.7400354
 Uncertainties for Heat Flux 36 25  35.4611053
 Uncertainties for Heat Flux 37 25  33.1904875
 Uncertainties for Heat Flux 38 25  32.8274962
 Uncertainties for Heat Flux 39 25  32.8452613
 Uncertainties for Heat Flux 40 25  32.7146695
 Uncertainties for Heat Flux 41 25  31.9241861
 Uncertainties for Heat Flux 42 25  31.2312787
 Uncertainties for Heat Flux 43 25  31.4242223
 Uncertainties for Heat Flux 44 25  31.2883727
 Uncertainties for Heat Flux 45 25  30.5599988
 Uncertainties for Heat Flux 46 25  30.0190271
 Uncertainties for Heat Flux 47 25  29.5070031
 Uncertainties for Heat Flux 48 25  29.3971767
 Uncertainties for Heat Flux 49 25  29.4555906
 Uncertainties for Heat Flux 50 25  28.3435179
 Uncertainties for Heat Flux 51 25  26.662398
 Uncertainties for Heat Flux 52 25  26.3235912
 Uncertainties for Heat Flux 53 25  26.8578002
 Uncertainties for Heat Flux 54 25  27.4725889
 Uncertainties for Heat Flux 55 25  28.9638621
 Uncertainties for Heat Flux 56 25  30.357008
 Uncertainties for Heat Flux 57 25  31.1200485
 Uncertainties for Heat Flux 58 25  32.0693652
 Uncertainties for Heat Flux 59 25  32.8306751
 Uncertainties for Heat Flux 60 25  32.7492154
 Uncertainties for Heat Flux 61 25  31.532444
 Uncertainties for Heat Flux 62 25  30.4946098
 Uncertainties for Heat Flux 63 25  29.8438689
 Uncertainties for Heat Flux 64 25  21.9756174
 Uncertainties for Heat Flux 65 25  20.
 Uncertainties for Heat Flux 66 25  0.
 Uncertainties for Heat Flux 67 25  0.
 Uncertainties for Heat Flux 68 25  0.
 Uncertainties for Heat Flux 69 25  29.4076837
 Uncertainties for Heat Flux 70 25  32.1514428
 Uncertainties for Heat Flux 71 25  28.3049946
 Uncertainties for Heat Flux 72 25  26.2068768
 Uncertainties for Heat Flux 73 25  24.7816781
 Uncertainties for Heat Flux 74 25  25.190333
 Uncertainties for Heat Flux 75 25  25.4179007
 Uncertainties for Heat Flux 76 25  25.8247681
 Uncertainties for Heat Flux 77 25  26.0210381
 Uncertainties for Heat Flux 78 25  26.3892676
 Uncertainties for Heat Flux 79 25  26.2852306
 Uncertainties for Heat Flux 80 25  25.8952039
 Uncertainties for Heat Flux 81 25  26.1737919
 Uncertainties for Heat Flux 82 25  26.2608973
 Uncertainties for Heat Flux 83 25  26.5665512
 Uncertainties for Heat Flux 84 25  28.2983538
 Uncertainties for Heat Flux 85 25  31.384311
 Uncertainties for Heat Flux 86 25  30.7836596
 Uncertainties for Heat Flux 87 25  0.
 Uncertainties for Heat Flux 88 25  0.
 Uncertainties for Heat Flux 89 25  0.
 Uncertainties for Heat Flux 90 25  0.
 Uncertainties for Heat Flux 91 25  0.
 Uncertainties for Heat Flux 92 25  0.
 Uncertainties for Heat Flux -1 26  0.
 Uncertainties for Heat Flux 0 26  0.
 Uncertainties for Heat Flux 1 26  0.
 Uncertainties for Heat Flux 2 26  0.
 Uncertainties for Heat Flux 3 26  0.
 Uncertainties for Heat Flux 4 26  0.
 Uncertainties for Heat Flux 5 26  0.
 Uncertainties for Heat Flux 6 26  0.
 Uncertainties for Heat Flux 7 26  0.
 Uncertainties for Heat Flux 8 26  0.
 Uncertainties for Heat Flux 9 26  0.
 Uncertainties for Heat Flux 10 26  0.
 Uncertainties for Heat Flux 11 26  0.
 Uncertainties for Heat Flux 12 26  0.
 Uncertainties for Heat Flux 13 26  0.
 Uncertainties for Heat Flux 14 26  0.
 Uncertainties for Heat Flux 15 26  27.6657041
 Uncertainties for Heat Flux 16 26  33.312788
 Uncertainties for Heat Flux 17 26  35.6780847
 Uncertainties for Heat Flux 18 26  0.
 Uncertainties for Heat Flux 19 26  0.
 Uncertainties for Heat Flux 20 26  0.
 Uncertainties for Heat Flux 21 26  0.
 Uncertainties for Heat Flux 22 26  0.
 Uncertainties for Heat Flux 23 26  0.
 Uncertainties for Heat Flux 24 26  0.
 Uncertainties for Heat Flux 25 26  0.
 Uncertainties for Heat Flux 26 26  0.
 Uncertainties for Heat Flux 27 26  0.
 Uncertainties for Heat Flux 28 26  0.
 Uncertainties for Heat Flux 29 26  45.6464055
 Uncertainties for Heat Flux 30 26  48.0179342
 Uncertainties for Heat Flux 31 26  56.5557785
 Uncertainties for Heat Flux 32 26  58.7731438
 Uncertainties for Heat Flux 33 26  53.8488566
 Uncertainties for Heat Flux 34 26  51.005544
 Uncertainties for Heat Flux 35 26  48.3460693
 Uncertainties for Heat Flux 36 26  45.3960311
 Uncertainties for Heat Flux 37 26  43.1297779
 Uncertainties for Heat Flux 38 26  41.016482
 Uncertainties for Heat Flux 39 26  40.2203554
 Uncertainties for Heat Flux 40 26  39.8554783
 Uncertainties for Heat Flux 41 26  39.1207155
 Uncertainties for Heat Flux 42 26  38.7533232
 Uncertainties for Heat Flux 43 26  38.2701302
 Uncertainties for Heat Flux 44 26  37.7951043
 Uncertainties for Heat Flux 45 26  37.8118134
 Uncertainties for Heat Flux 46 26  37.9370829
 Uncertainties for Heat Flux 47 26  37.8018761
 Uncertainties for Heat Flux 48 26  37.089639
 Uncertainties for Heat Flux 49 26  36.3554274
 Uncertainties for Heat Flux 50 26  34.5649846
 Uncertainties for Heat Flux 51 26  32.6826445
 Uncertainties for Heat Flux 52 26  30.9230607
 Uncertainties for Heat Flux 53 26  30.2701098
 Uncertainties for Heat Flux 54 26  29.7623482
 Uncertainties for Heat Flux 55 26  30.6714382
 Uncertainties for Heat Flux 56 26  31.2223403
 Uncertainties for Heat Flux 57 26  31.1423868
 Uncertainties for Heat Flux 58 26  31.2377555
 Uncertainties for Heat Flux 59 26  31.2087364
 Uncertainties for Heat Flux 60 26  30.1082776
 Uncertainties for Heat Flux 61 26  30.889761
 Uncertainties for Heat Flux 62 26  34.1621106
 Uncertainties for Heat Flux 63 26  30.3244801
 Uncertainties for Heat Flux 64 26  20.
 Uncertainties for Heat Flux 65 26  0.
 Uncertainties for Heat Flux 66 26  41.2145081
 Uncertainties for Heat Flux 67 26  42.2110608
 Uncertainties for Heat Flux 68 26  36.9482303
 Uncertainties for Heat Flux 69 26  42.774135
 Uncertainties for Heat Flux 70 26  45.6751773
 Uncertainties for Heat Flux 71 26  39.2499154
 Uncertainties for Heat Flux 72 26  38.0207812
 Uncertainties for Heat Flux 73 26  33.0347226
 Uncertainties for Heat Flux 74 26  31.4014282
 Uncertainties for Heat Flux 75 26  30.9390678
 Uncertainties for Heat Flux 76 26  30.7270234
 Uncertainties for Heat Flux 77 26  30.7616304
 Uncertainties for Heat Flux 78 26  30.4838791
 Uncertainties for Heat Flux 79 26  29.793513
 Uncertainties for Heat Flux 80 26  29.2779077
 Uncertainties for Heat Flux 81 26  29.2449945
 Uncertainties for Heat Flux 82 26  28.3772755
 Uncertainties for Heat Flux 83 26  27.6081759
 Uncertainties for Heat Flux 84 26  27.611489
 Uncertainties for Heat Flux 85 26  29.6659196
 Uncertainties for Heat Flux 86 26  29.7884979
 Uncertainties for Heat Flux 87 26  0.
 Uncertainties for Heat Flux 88 26  0.
 Uncertainties for Heat Flux 89 26  0.
 Uncertainties for Heat Flux 90 26  0.
 Uncertainties for Heat Flux 91 26  0.
 Uncertainties for Heat Flux 92 26  0.
 Uncertainties for Heat Flux -1 27  0.
 Uncertainties for Heat Flux 0 27  0.
 Uncertainties for Heat Flux 1 27  0.
 Uncertainties for Heat Flux 2 27  0.
 Uncertainties for Heat Flux 3 27  0.
 Uncertainties for Heat Flux 4 27  0.
 Uncertainties for Heat Flux 5 27  0.
 Uncertainties for Heat Flux 6 27  0.
 Uncertainties for Heat Flux 7 27  0.
 Uncertainties for Heat Flux 8 27  0.
 Uncertainties for Heat Flux 9 27  0.
 Uncertainties for Heat Flux 10 27  0.
 Uncertainties for Heat Flux 11 27  0.
 Uncertainties for Heat Flux 12 27  0.
 Uncertainties for Heat Flux 13 27  0.
 Uncertainties for Heat Flux 14 27  0.
 Uncertainties for Heat Flux 15 27  20.
 Uncertainties for Heat Flux 16 27  23.8596891
 Uncertainties for Heat Flux 17 27  0.
 Uncertainties for Heat Flux 18 27  0.
 Uncertainties for Heat Flux 19 27  0.
 Uncertainties for Heat Flux 20 27  0.
 Uncertainties for Heat Flux 21 27  0.
 Uncertainties for Heat Flux 22 27  0.
 Uncertainties for Heat Flux 23 27  0.
 Uncertainties for Heat Flux 24 27  0.
 Uncertainties for Heat Flux 25 27  0.
 Uncertainties for Heat Flux 26 27  0.
 Uncertainties for Heat Flux 27 27  0.
 Uncertainties for Heat Flux 28 27  0.
 Uncertainties for Heat Flux 29 27  0.
 Uncertainties for Heat Flux 30 27  0.
 Uncertainties for Heat Flux 31 27  66.9726652
 Uncertainties for Heat Flux 32 27  79.9401042
 Uncertainties for Heat Flux 33 27  64.2214203
 Uncertainties for Heat Flux 34 27  57.4056422
 Uncertainties for Heat Flux 35 27  52.1424751
 Uncertainties for Heat Flux 36 27  49.6754926
 Uncertainties for Heat Flux 37 27  50.2640139
 Uncertainties for Heat Flux 38 27  49.6275813
 Uncertainties for Heat Flux 39 27  48.8297094
 Uncertainties for Heat Flux 40 27  47.8779577
 Uncertainties for Heat Flux 41 27  46.3015467
 Uncertainties for Heat Flux 42 27  45.9993057
 Uncertainties for Heat Flux 43 27  45.1271337
 Uncertainties for Heat Flux 44 27  44.2835464
 Uncertainties for Heat Flux 45 27  44.1528625
 Uncertainties for Heat Flux 46 27  44.4275945
 Uncertainties for Heat Flux 47 27  45.7147878
 Uncertainties for Heat Flux 48 27  44.9200376
 Uncertainties for Heat Flux 49 27  43.0087859
 Uncertainties for Heat Flux 50 27  41.5128479
 Uncertainties for Heat Flux 51 27  40.2747612
 Uncertainties for Heat Flux 52 27  38.765089
 Uncertainties for Heat Flux 53 27  36.3542061
 Uncertainties for Heat Flux 54 27  34.103508
 Uncertainties for Heat Flux 55 27  31.9263471
 Uncertainties for Heat Flux 56 27  31.0104211
 Uncertainties for Heat Flux 57 27  29.5331205
 Uncertainties for Heat Flux 58 27  28.552454
 Uncertainties for Heat Flux 59 27  27.9480515
 Uncertainties for Heat Flux 60 27  26.943655
 Uncertainties for Heat Flux 61 27  29.698178
 Uncertainties for Heat Flux 62 27  31.1612539
 Uncertainties for Heat Flux 63 27  0.
 Uncertainties for Heat Flux 64 27  0.
 Uncertainties for Heat Flux 65 27  0.
 Uncertainties for Heat Flux 66 27  39.9694138
 Uncertainties for Heat Flux 67 27  59.2827861
 Uncertainties for Heat Flux 68 27  58.7025808
 Uncertainties for Heat Flux 69 27  60.2051735
 Uncertainties for Heat Flux 70 27  0.
 Uncertainties for Heat Flux 71 27  45.3510412
 Uncertainties for Heat Flux 72 27  44.5386302
 Uncertainties for Heat Flux 73 27  42.008166
 Uncertainties for Heat Flux 74 27  39.8342152
 Uncertainties for Heat Flux 75 27  38.1934026
 Uncertainties for Heat Flux 76 27  37.1431033
 Uncertainties for Heat Flux 77 27  36.1755358
 Uncertainties for Heat Flux 78 27  35.590861
 Uncertainties for Heat Flux 79 27  34.9338907
 Uncertainties for Heat Flux 80 27  34.143877
 Uncertainties for Heat Flux 81 27  33.4538987
 Uncertainties for Heat Flux 82 27  32.6933537
 Uncertainties for Heat Flux 83 27  31.4707355
 Uncertainties for Heat Flux 84 27  30.4010658
 Uncertainties for Heat Flux 85 27  29.4317926
 Uncertainties for Heat Flux 86 27  27.9962756
 Uncertainties for Heat Flux 87 27  0.
 Uncertainties for Heat Flux 88 27  0.
 Uncertainties for Heat Flux 89 27  0.
 Uncertainties for Heat Flux 90 27  0.
 Uncertainties for Heat Flux 91 27  0.
 Uncertainties for Heat Flux 92 27  0.
 Uncertainties for Heat Flux -1 28  0.
 Uncertainties for Heat Flux 0 28  0.
 Uncertainties for Heat Flux 1 28  0.
 Uncertainties for Heat Flux 2 28  0.
 Uncertainties for Heat Flux 3 28  0.
 Uncertainties for Heat Flux 4 28  0.
 Uncertainties for Heat Flux 5 28  0.
 Uncertainties for Heat Flux 6 28  0.
 Uncertainties for Heat Flux 7 28  0.
 Uncertainties for Heat Flux 8 28  0.
 Uncertainties for Heat Flux 9 28  0.
 Uncertainties for Heat Flux 10 28  0.
 Uncertainties for Heat Flux 11 28  0.
 Uncertainties for Heat Flux 12 28  0.
 Uncertainties for Heat Flux 13 28  0.
 Uncertainties for Heat Flux 14 28  0.
 Uncertainties for Heat Flux 15 28  0.
 Uncertainties for Heat Flux 16 28  0.
 Uncertainties for Heat Flux 17 28  0.
 Uncertainties for Heat Flux 18 28  0.
 Uncertainties for Heat Flux 19 28  0.
 Uncertainties for Heat Flux 20 28  0.
 Uncertainties for Heat Flux 21 28  0.
 Uncertainties for Heat Flux 22 28  0.
 Uncertainties for Heat Flux 23 28  0.
 Uncertainties for Heat Flux 24 28  0.
 Uncertainties for Heat Flux 25 28  0.
 Uncertainties for Heat Flux 26 28  0.
 Uncertainties for Heat Flux 27 28  0.
 Uncertainties for Heat Flux 28 28  0.
 Uncertainties for Heat Flux 29 28  0.
 Uncertainties for Heat Flux 30 28  0.
 Uncertainties for Heat Flux 31 28  0.
 Uncertainties for Heat Flux 32 28  85.1848145
 Uncertainties for Heat Flux 33 28  82.2013575
 Uncertainties for Heat Flux 34 28  76.2848155
 Uncertainties for Heat Flux 35 28  70.868618
 Uncertainties for Heat Flux 36 28  64.2626038
 Uncertainties for Heat Flux 37 28  62.420578
 Uncertainties for Heat Flux 38 28  61.6329066
 Uncertainties for Heat Flux 39 28  61.257253
 Uncertainties for Heat Flux 40 28  59.5667941
 Uncertainties for Heat Flux 41 28  56.7338715
 Uncertainties for Heat Flux 42 28  54.6259982
 Uncertainties for Heat Flux 43 28  52.6587715
 Uncertainties for Heat Flux 44 28  50.9357694
 Uncertainties for Heat Flux 45 28  48.7954165
 Uncertainties for Heat Flux 46 28  48.5669441
 Uncertainties for Heat Flux 47 28  48.7163862
 Uncertainties for Heat Flux 48 28  47.7897835
 Uncertainties for Heat Flux 49 28  47.0361849
 Uncertainties for Heat Flux 50 28  46.7658208
 Uncertainties for Heat Flux 51 28  45.5485369
 Uncertainties for Heat Flux 52 28  43.7302443
 Uncertainties for Heat Flux 53 28  41.9353129
 Uncertainties for Heat Flux 54 28  39.385198
 Uncertainties for Heat Flux 55 28  36.3236783
 Uncertainties for Heat Flux 56 28  33.526954
 Uncertainties for Heat Flux 57 28  31.6080805
 Uncertainties for Heat Flux 58 28  29.6503913
 Uncertainties for Heat Flux 59 28  28.9152603
 Uncertainties for Heat Flux 60 28  28.3316523
 Uncertainties for Heat Flux 61 28  27.9408735
 Uncertainties for Heat Flux 62 28  0.
 Uncertainties for Heat Flux 63 28  0.
 Uncertainties for Heat Flux 64 28  0.
 Uncertainties for Heat Flux 65 28  0.
 Uncertainties for Heat Flux 66 28  0.
 Uncertainties for Heat Flux 67 28  0.
 Uncertainties for Heat Flux 68 28  0.
 Uncertainties for Heat Flux 69 28  0.
 Uncertainties for Heat Flux 70 28  0.
 Uncertainties for Heat Flux 71 28  72.2160034
 Uncertainties for Heat Flux 72 28  56.5953789
 Uncertainties for Heat Flux 73 28  50.2078718
 Uncertainties for Heat Flux 74 28  48.5563062
 Uncertainties for Heat Flux 75 28  46.7961362
 Uncertainties for Heat Flux 76 28  44.4412378
 Uncertainties for Heat Flux 77 28  42.5900078
 Uncertainties for Heat Flux 78 28  42.4339492
 Uncertainties for Heat Flux 79 28  40.7250347
 Uncertainties for Heat Flux 80 28  39.6820037
 Uncertainties for Heat Flux 81 28  38.5574608
 Uncertainties for Heat Flux 82 28  37.722421
 Uncertainties for Heat Flux 83 28  35.9323241
 Uncertainties for Heat Flux 84 28  34.6699454
 Uncertainties for Heat Flux 85 28  33.1761227
 Uncertainties for Heat Flux 86 28  30.783954
 Uncertainties for Heat Flux 87 28  28.0628726
 Uncertainties for Heat Flux 88 28  24.287866
 Uncertainties for Heat Flux 89 28  0.
 Uncertainties for Heat Flux 90 28  0.
 Uncertainties for Heat Flux 91 28  0.
 Uncertainties for Heat Flux 92 28  0.
 Uncertainties for Heat Flux -1 29  0.
 Uncertainties for Heat Flux 0 29  0.
 Uncertainties for Heat Flux 1 29  0.
 Uncertainties for Heat Flux 2 29  0.
 Uncertainties for Heat Flux 3 29  0.
 Uncertainties for Heat Flux 4 29  0.
 Uncertainties for Heat Flux 5 29  0.
 Uncertainties for Heat Flux 6 29  0.
 Uncertainties for Heat Flux 7 29  0.
 Uncertainties for Heat Flux 8 29  0.
 Uncertainties for Heat Flux 9 29  0.
 Uncertainties for Heat Flux 10 29  0.
 Uncertainties for Heat Flux 11 29  0.
 Uncertainties for Heat Flux 12 29  0.
 Uncertainties for Heat Flux 13 29  0.
 Uncertainties for Heat Flux 14 29  0.
 Uncertainties for Heat Flux 15 29  0.
 Uncertainties for Heat Flux 16 29  0.
 Uncertainties for Heat Flux 17 29  0.
 Uncertainties for Heat Flux 18 29  0.
 Uncertainties for Heat Flux 19 29  0.
 Uncertainties for Heat Flux 20 29  0.
 Uncertainties for Heat Flux 21 29  0.
 Uncertainties for Heat Flux 22 29  0.
 Uncertainties for Heat Flux 23 29  0.
 Uncertainties for Heat Flux 24 29  0.
 Uncertainties for Heat Flux 25 29  0.
 Uncertainties for Heat Flux 26 29  0.
 Uncertainties for Heat Flux 27 29  0.
 Uncertainties for Heat Flux 28 29  0.
 Uncertainties for Heat Flux 29 29  0.
 Uncertainties for Heat Flux 30 29  0.
 Uncertainties for Heat Flux 31 29  0.
 Uncertainties for Heat Flux 32 29  0.
 Uncertainties for Heat Flux 33 29  0.
 Uncertainties for Heat Flux 34 29  82.2990875
 Uncertainties for Heat Flux 35 29  73.6919522
 Uncertainties for Heat Flux 36 29  85.2828929
 Uncertainties for Heat Flux 37 29  82.5722224
 Uncertainties for Heat Flux 38 29  79.6377398
 Uncertainties for Heat Flux 39 29  74.9400622
 Uncertainties for Heat Flux 40 29  71.1725705
 Uncertainties for Heat Flux 41 29  69.5235914
 Uncertainties for Heat Flux 42 29  66.1387952
 Uncertainties for Heat Flux 43 29  62.9804014
 Uncertainties for Heat Flux 44 29  60.4366824
 Uncertainties for Heat Flux 45 29  55.865036
 Uncertainties for Heat Flux 46 29  53.1481323
 Uncertainties for Heat Flux 47 29  51.5964406
 Uncertainties for Heat Flux 48 29  49.6214078
 Uncertainties for Heat Flux 49 29  47.9821231
 Uncertainties for Heat Flux 50 29  47.5456746
 Uncertainties for Heat Flux 51 29  46.763607
 Uncertainties for Heat Flux 52 29  44.9332123
 Uncertainties for Heat Flux 53 29  43.78626
 Uncertainties for Heat Flux 54 29  42.3921585
 Uncertainties for Heat Flux 55 29  40.0466366
 Uncertainties for Heat Flux 56 29  37.6537348
 Uncertainties for Heat Flux 57 29  35.4986877
 Uncertainties for Heat Flux 58 29  33.3999729
 Uncertainties for Heat Flux 59 29  30.9912815
 Uncertainties for Heat Flux 60 29  28.0155322
 Uncertainties for Heat Flux 61 29  0.
 Uncertainties for Heat Flux 62 29  0.
 Uncertainties for Heat Flux 63 29  0.
 Uncertainties for Heat Flux 64 29  0.
 Uncertainties for Heat Flux 65 29  0.
 Uncertainties for Heat Flux 66 29  0.
 Uncertainties for Heat Flux 67 29  0.
 Uncertainties for Heat Flux 68 29  0.
 Uncertainties for Heat Flux 69 29  0.
 Uncertainties for Heat Flux 70 29  0.
 Uncertainties for Heat Flux 71 29  0.
 Uncertainties for Heat Flux 72 29  84.0102984
 Uncertainties for Heat Flux 73 29  71.7727865
 Uncertainties for Heat Flux 74 29  63.2368647
 Uncertainties for Heat Flux 75 29  60.0496546
 Uncertainties for Heat Flux 76 29  56.6715215
 Uncertainties for Heat Flux 77 29  54.522658
 Uncertainties for Heat Flux 78 29  52.6510493
 Uncertainties for Heat Flux 79 29  49.3268611
 Uncertainties for Heat Flux 80 29  46.5585683
 Uncertainties for Heat Flux 81 29  44.6818237
 Uncertainties for Heat Flux 82 29  42.2006175
 Uncertainties for Heat Flux 83 29  40.9087187
 Uncertainties for Heat Flux 84 29  39.3307387
 Uncertainties for Heat Flux 85 29  38.3596547
 Uncertainties for Heat Flux 86 29  36.9523265
 Uncertainties for Heat Flux 87 29  34.8794994
 Uncertainties for Heat Flux 88 29  30.6257197
 Uncertainties for Heat Flux 89 29  0.
 Uncertainties for Heat Flux 90 29  0.
 Uncertainties for Heat Flux 91 29  0.
 Uncertainties for Heat Flux 92 29  0.
 Uncertainties for Heat Flux -1 30  0.
 Uncertainties for Heat Flux 0 30  0.
 Uncertainties for Heat Flux 1 30  0.
 Uncertainties for Heat Flux 2 30  0.
 Uncertainties for Heat Flux 3 30  0.
 Uncertainties for Heat Flux 4 30  0.
 Uncertainties for Heat Flux 5 30  0.
 Uncertainties for Heat Flux 6 30  0.
 Uncertainties for Heat Flux 7 30  0.
 Uncertainties for Heat Flux 8 30  0.
 Uncertainties for Heat Flux 9 30  0.
 Uncertainties for Heat Flux 10 30  0.
 Uncertainties for Heat Flux 11 30  0.
 Uncertainties for Heat Flux 12 30  0.
 Uncertainties for Heat Flux 13 30  0.
 Uncertainties for Heat Flux 14 30  0.
 Uncertainties for Heat Flux 15 30  0.
 Uncertainties for Heat Flux 16 30  0.
 Uncertainties for Heat Flux 17 30  0.
 Uncertainties for Heat Flux 18 30  0.
 Uncertainties for Heat Flux 19 30  0.
 Uncertainties for Heat Flux 20 30  0.
 Uncertainties for Heat Flux 21 30  0.
 Uncertainties for Heat Flux 22 30  0.
 Uncertainties for Heat Flux 23 30  0.
 Uncertainties for Heat Flux 24 30  0.
 Uncertainties for Heat Flux 25 30  0.
 Uncertainties for Heat Flux 26 30  0.
 Uncertainties for Heat Flux 27 30  0.
 Uncertainties for Heat Flux 28 30  0.
 Uncertainties for Heat Flux 29 30  0.
 Uncertainties for Heat Flux 30 30  0.
 Uncertainties for Heat Flux 31 30  0.
 Uncertainties for Heat Flux 32 30  0.
 Uncertainties for Heat Flux 33 30  0.
 Uncertainties for Heat Flux 34 30  0.
 Uncertainties for Heat Flux 35 30  0.
 Uncertainties for Heat Flux 36 30  74.2428148
 Uncertainties for Heat Flux 37 30  83.7556012
 Uncertainties for Heat Flux 38 30  80.4982961
 Uncertainties for Heat Flux 39 30  78.5636571
 Uncertainties for Heat Flux 40 30  75.0807355
 Uncertainties for Heat Flux 41 30  72.3522784
 Uncertainties for Heat Flux 42 30  68.5671501
 Uncertainties for Heat Flux 43 30  66.5381864
 Uncertainties for Heat Flux 44 30  62.6836192
 Uncertainties for Heat Flux 45 30  58.5907389
 Uncertainties for Heat Flux 46 30  54.8175468
 Uncertainties for Heat Flux 47 30  52.0559731
 Uncertainties for Heat Flux 48 30  49.903389
 Uncertainties for Heat Flux 49 30  48.0009575
 Uncertainties for Heat Flux 50 30  47.0552216
 Uncertainties for Heat Flux 51 30  45.8040911
 Uncertainties for Heat Flux 52 30  45.2790413
 Uncertainties for Heat Flux 53 30  43.8998426
 Uncertainties for Heat Flux 54 30  43.1795858
 Uncertainties for Heat Flux 55 30  42.0693766
 Uncertainties for Heat Flux 56 30  40.7596296
 Uncertainties for Heat Flux 57 30  39.1037693
 Uncertainties for Heat Flux 58 30  36.2356949
 Uncertainties for Heat Flux 59 30  31.7253106
 Uncertainties for Heat Flux 60 30  0.
 Uncertainties for Heat Flux 61 30  0.
 Uncertainties for Heat Flux 62 30  0.
 Uncertainties for Heat Flux 63 30  0.
 Uncertainties for Heat Flux 64 30  0.
 Uncertainties for Heat Flux 65 30  0.
 Uncertainties for Heat Flux 66 30  0.
 Uncertainties for Heat Flux 67 30  0.
 Uncertainties for Heat Flux 68 30  0.
 Uncertainties for Heat Flux 69 30  0.
 Uncertainties for Heat Flux 70 30  0.
 Uncertainties for Heat Flux 71 30  0.
 Uncertainties for Heat Flux 72 30  80.3320109
 Uncertainties for Heat Flux 73 30  86.2427305
 Uncertainties for Heat Flux 74 30  82.8968468
 Uncertainties for Heat Flux 75 30  84.7941755
 Uncertainties for Heat Flux 76 30  78.9915161
 Uncertainties for Heat Flux 77 30  76.0769933
 Uncertainties for Heat Flux 78 30  70.6554171
 Uncertainties for Heat Flux 79 30  64.9832929
 Uncertainties for Heat Flux 80 30  58.6964595
 Uncertainties for Heat Flux 81 30  53.3860067
 Uncertainties for Heat Flux 82 30  47.7422396
 Uncertainties for Heat Flux 83 30  43.7501609
 Uncertainties for Heat Flux 84 30  40.8377571
 Uncertainties for Heat Flux 85 30  40.8221003
 Uncertainties for Heat Flux 86 30  38.7426497
 Uncertainties for Heat Flux 87 30  38.3550491
 Uncertainties for Heat Flux 88 30  37.8406137
 Uncertainties for Heat Flux 89 30  0.
 Uncertainties for Heat Flux 90 30  0.
 Uncertainties for Heat Flux 91 30  0.
 Uncertainties for Heat Flux 92 30  0.
 Uncertainties for Heat Flux -1 31  0.
 Uncertainties for Heat Flux 0 31  0.
 Uncertainties for Heat Flux 1 31  0.
 Uncertainties for Heat Flux 2 31  0.
 Uncertainties for Heat Flux 3 31  0.
 Uncertainties for Heat Flux 4 31  0.
 Uncertainties for Heat Flux 5 31  0.
 Uncertainties for Heat Flux 6 31  0.
 Uncertainties for Heat Flux 7 31  0.
 Uncertainties for Heat Flux 8 31  0.
 Uncertainties for Heat Flux 9 31  0.
 Uncertainties for Heat Flux 10 31  0.
 Uncertainties for Heat Flux 11 31  0.
 Uncertainties for Heat Flux 12 31  0.
 Uncertainties for Heat Flux 13 31  0.
 Uncertainties for Heat Flux 14 31  0.
 Uncertainties for Heat Flux 15 31  0.
 Uncertainties for Heat Flux 16 31  0.
 Uncertainties for Heat Flux 17 31  0.
 Uncertainties for Heat Flux 18 31  0.
 Uncertainties for Heat Flux 19 31  0.
 Uncertainties for Heat Flux 20 31  0.
 Uncertainties for Heat Flux 21 31  0.
 Uncertainties for Heat Flux 22 31  0.
 Uncertainties for Heat Flux 23 31  0.
 Uncertainties for Heat Flux 24 31  0.
 Uncertainties for Heat Flux 25 31  0.
 Uncertainties for Heat Flux 26 31  0.
 Uncertainties for Heat Flux 27 31  0.
 Uncertainties for Heat Flux 28 31  0.
 Uncertainties for Heat Flux 29 31  0.
 Uncertainties for Heat Flux 30 31  0.
 Uncertainties for Heat Flux 31 31  0.
 Uncertainties for Heat Flux 32 31  0.
 Uncertainties for Heat Flux 33 31  0.
 Uncertainties for Heat Flux 34 31  0.
 Uncertainties for Heat Flux 35 31  0.
 Uncertainties for Heat Flux 36 31  0.
 Uncertainties for Heat Flux 37 31  65.5060565
 Uncertainties for Heat Flux 38 31  60.857207
 Uncertainties for Heat Flux 39 31  63.4631894
 Uncertainties for Heat Flux 40 31  63.2217293
 Uncertainties for Heat Flux 41 31  60.4150073
 Uncertainties for Heat Flux 42 31  58.5078786
 Uncertainties for Heat Flux 43 31  58.9577866
 Uncertainties for Heat Flux 44 31  57.66716
 Uncertainties for Heat Flux 45 31  56.018678
 Uncertainties for Heat Flux 46 31  53.161377
 Uncertainties for Heat Flux 47 31  49.9601199
 Uncertainties for Heat Flux 48 31  48.2974243
 Uncertainties for Heat Flux 49 31  47.015653
 Uncertainties for Heat Flux 50 31  45.0724144
 Uncertainties for Heat Flux 51 31  43.4074529
 Uncertainties for Heat Flux 52 31  42.9614175
 Uncertainties for Heat Flux 53 31  42.2645257
 Uncertainties for Heat Flux 54 31  41.6512362
 Uncertainties for Heat Flux 55 31  41.8915462
 Uncertainties for Heat Flux 56 31  41.7863992
 Uncertainties for Heat Flux 57 31  40.9004288
 Uncertainties for Heat Flux 58 31  36.7797877
 Uncertainties for Heat Flux 59 31  27.3804016
 Uncertainties for Heat Flux 60 31  0.
 Uncertainties for Heat Flux 61 31  0.
 Uncertainties for Heat Flux 62 31  0.
 Uncertainties for Heat Flux 63 31  0.
 Uncertainties for Heat Flux 64 31  0.
 Uncertainties for Heat Flux 65 31  0.
 Uncertainties for Heat Flux 66 31  0.
 Uncertainties for Heat Flux 67 31  0.
 Uncertainties for Heat Flux 68 31  0.
 Uncertainties for Heat Flux 69 31  0.
 Uncertainties for Heat Flux 70 31  0.
 Uncertainties for Heat Flux 71 31  0.
 Uncertainties for Heat Flux 72 31  0.
 Uncertainties for Heat Flux 73 31  0.
 Uncertainties for Heat Flux 74 31  69.0463371
 Uncertainties for Heat Flux 75 31  80.6148237
 Uncertainties for Heat Flux 76 31  81.6961784
 Uncertainties for Heat Flux 77 31  76.6738841
 Uncertainties for Heat Flux 78 31  71.5068334
 Uncertainties for Heat Flux 79 31  79.0589193
 Uncertainties for Heat Flux 80 31  77.5164388
 Uncertainties for Heat Flux 81 31  64.9945132
 Uncertainties for Heat Flux 82 31  56.3671455
 Uncertainties for Heat Flux 83 31  49.0914332
 Uncertainties for Heat Flux 84 31  44.8629735
 Uncertainties for Heat Flux 85 31  42.9966469
 Uncertainties for Heat Flux 86 31  41.1499729
 Uncertainties for Heat Flux 87 31  39.5942128
 Uncertainties for Heat Flux 88 31  38.4777342
 Uncertainties for Heat Flux 89 31  0.
 Uncertainties for Heat Flux 90 31  0.
 Uncertainties for Heat Flux 91 31  0.
 Uncertainties for Heat Flux 92 31  0.
 Uncertainties for Heat Flux -1 32  40.7590542
 Uncertainties for Heat Flux 0 32  0.
 Uncertainties for Heat Flux 1 32  0.
 Uncertainties for Heat Flux 2 32  0.
 Uncertainties for Heat Flux 3 32  0.
 Uncertainties for Heat Flux 4 32  0.
 Uncertainties for Heat Flux 5 32  0.
 Uncertainties for Heat Flux 6 32  0.
 Uncertainties for Heat Flux 7 32  0.
 Uncertainties for Heat Flux 8 32  0.
 Uncertainties for Heat Flux 9 32  0.
 Uncertainties for Heat Flux 10 32  0.
 Uncertainties for Heat Flux 11 32  0.
 Uncertainties for Heat Flux 12 32  0.
 Uncertainties for Heat Flux 13 32  0.
 Uncertainties for Heat Flux 14 32  0.
 Uncertainties for Heat Flux 15 32  0.
 Uncertainties for Heat Flux 16 32  0.
 Uncertainties for Heat Flux 17 32  0.
 Uncertainties for Heat Flux 18 32  0.
 Uncertainties for Heat Flux 19 32  0.
 Uncertainties for Heat Flux 20 32  0.
 Uncertainties for Heat Flux 21 32  0.
 Uncertainties for Heat Flux 22 32  0.
 Uncertainties for Heat Flux 23 32  0.
 Uncertainties for Heat Flux 24 32  0.
 Uncertainties for Heat Flux 25 32  0.
 Uncertainties for Heat Flux 26 32  0.
 Uncertainties for Heat Flux 27 32  0.
 Uncertainties for Heat Flux 28 32  0.
 Uncertainties for Heat Flux 29 32  0.
 Uncertainties for Heat Flux 30 32  0.
 Uncertainties for Heat Flux 31 32  0.
 Uncertainties for Heat Flux 32 32  0.
 Uncertainties for Heat Flux 33 32  0.
 Uncertainties for Heat Flux 34 32  0.
 Uncertainties for Heat Flux 35 32  0.
 Uncertainties for Heat Flux 36 32  0.
 Uncertainties for Heat Flux 37 32  58.5412153
 Uncertainties for Heat Flux 38 32  58.0602163
 Uncertainties for Heat Flux 39 32  53.7708333
 Uncertainties for Heat Flux 40 32  53.4600856
 Uncertainties for Heat Flux 41 32  52.5211054
 Uncertainties for Heat Flux 42 32  48.6077779
 Uncertainties for Heat Flux 43 32  46.9277293
 Uncertainties for Heat Flux 44 32  47.9836273
 Uncertainties for Heat Flux 45 32  47.0046768
 Uncertainties for Heat Flux 46 32  45.6472766
 Uncertainties for Heat Flux 47 32  44.9890798
 Uncertainties for Heat Flux 48 32  43.5980371
 Uncertainties for Heat Flux 49 32  43.1768945
 Uncertainties for Heat Flux 50 32  42.9411564
 Uncertainties for Heat Flux 51 32  41.9591694
 Uncertainties for Heat Flux 52 32  41.8688329
 Uncertainties for Heat Flux 53 32  41.311559
 Uncertainties for Heat Flux 54 32  40.509786
 Uncertainties for Heat Flux 55 32  40.9676622
 Uncertainties for Heat Flux 56 32  40.8048668
 Uncertainties for Heat Flux 57 32  40.9223595
 Uncertainties for Heat Flux 58 32  38.8226337
 Uncertainties for Heat Flux 59 32  29.984052
 Uncertainties for Heat Flux 60 32  0.
 Uncertainties for Heat Flux 61 32  0.
 Uncertainties for Heat Flux 62 32  0.
 Uncertainties for Heat Flux 63 32  0.
 Uncertainties for Heat Flux 64 32  0.
 Uncertainties for Heat Flux 65 32  0.
 Uncertainties for Heat Flux 66 32  0.
 Uncertainties for Heat Flux 67 32  0.
 Uncertainties for Heat Flux 68 32  0.
 Uncertainties for Heat Flux 69 32  0.
 Uncertainties for Heat Flux 70 32  0.
 Uncertainties for Heat Flux 71 32  0.
 Uncertainties for Heat Flux 72 32  0.
 Uncertainties for Heat Flux 73 32  0.
 Uncertainties for Heat Flux 74 32  0.
 Uncertainties for Heat Flux 75 32  0.
 Uncertainties for Heat Flux 76 32  59.4768194
 Uncertainties for Heat Flux 77 32  58.6935577
 Uncertainties for Heat Flux 78 32  53.8769137
 Uncertainties for Heat Flux 79 32  65.2305819
 Uncertainties for Heat Flux 80 32  82.5652631
 Uncertainties for Heat Flux 81 32  76.7958412
 Uncertainties for Heat Flux 82 32  64.0610593
 Uncertainties for Heat Flux 83 32  56.2285894
 Uncertainties for Heat Flux 84 32  50.2765719
 Uncertainties for Heat Flux 85 32  46.7735825
 Uncertainties for Heat Flux 86 32  44.9533068
 Uncertainties for Heat Flux 87 32  42.4025993
 Uncertainties for Heat Flux 88 32  41.4298744
 Uncertainties for Heat Flux 89 32  40.7590542
 Uncertainties for Heat Flux 90 32  0.
 Uncertainties for Heat Flux 91 32  0.
 Uncertainties for Heat Flux 92 32  0.
 Uncertainties for Heat Flux -1 33  43.5242538
 Uncertainties for Heat Flux 0 33  0.
 Uncertainties for Heat Flux 1 33  0.
 Uncertainties for Heat Flux 2 33  0.
 Uncertainties for Heat Flux 3 33  0.
 Uncertainties for Heat Flux 4 33  0.
 Uncertainties for Heat Flux 5 33  0.
 Uncertainties for Heat Flux 6 33  0.
 Uncertainties for Heat Flux 7 33  0.
 Uncertainties for Heat Flux 8 33  0.
 Uncertainties for Heat Flux 9 33  0.
 Uncertainties for Heat Flux 10 33  0.
 Uncertainties for Heat Flux 11 33  0.
 Uncertainties for Heat Flux 12 33  0.
 Uncertainties for Heat Flux 13 33  0.
 Uncertainties for Heat Flux 14 33  0.
 Uncertainties for Heat Flux 15 33  0.
 Uncertainties for Heat Flux 16 33  0.
 Uncertainties for Heat Flux 17 33  0.
 Uncertainties for Heat Flux 18 33  0.
 Uncertainties for Heat Flux 19 33  0.
 Uncertainties for Heat Flux 20 33  0.
 Uncertainties for Heat Flux 21 33  0.
 Uncertainties for Heat Flux 22 33  0.
 Uncertainties for Heat Flux 23 33  0.
 Uncertainties for Heat Flux 24 33  0.
 Uncertainties for Heat Flux 25 33  0.
 Uncertainties for Heat Flux 26 33  0.
 Uncertainties for Heat Flux 27 33  0.
 Uncertainties for Heat Flux 28 33  0.
 Uncertainties for Heat Flux 29 33  0.
 Uncertainties for Heat Flux 30 33  0.
 Uncertainties for Heat Flux 31 33  0.
 Uncertainties for Heat Flux 32 33  0.
 Uncertainties for Heat Flux 33 33  0.
 Uncertainties for Heat Flux 34 33  0.
 Uncertainties for Heat Flux 35 33  0.
 Uncertainties for Heat Flux 36 33  0.
 Uncertainties for Heat Flux 37 33  61.9053879
 Uncertainties for Heat Flux 38 33  63.2647273
 Uncertainties for Heat Flux 39 33  53.9784177
 Uncertainties for Heat Flux 40 33  50.8654709
 Uncertainties for Heat Flux 41 33  49.8234711
 Uncertainties for Heat Flux 42 33  47.6900508
 Uncertainties for Heat Flux 43 33  46.2128944
 Uncertainties for Heat Flux 44 33  44.5802536
 Uncertainties for Heat Flux 45 33  44.1935158
 Uncertainties for Heat Flux 46 33  43.3424187
 Uncertainties for Heat Flux 47 33  42.4420929
 Uncertainties for Heat Flux 48 33  42.4279455
 Uncertainties for Heat Flux 49 33  42.8227863
 Uncertainties for Heat Flux 50 33  42.7663752
 Uncertainties for Heat Flux 51 33  42.4624882
 Uncertainties for Heat Flux 52 33  41.4138947
 Uncertainties for Heat Flux 53 33  40.9358304
 Uncertainties for Heat Flux 54 33  40.3512808
 Uncertainties for Heat Flux 55 33  40.2607886
 Uncertainties for Heat Flux 56 33  41.7812303
 Uncertainties for Heat Flux 57 33  41.1640244
 Uncertainties for Heat Flux 58 33  38.6404362
 Uncertainties for Heat Flux 59 33  37.4160919
 Uncertainties for Heat Flux 60 33  0.
 Uncertainties for Heat Flux 61 33  0.
 Uncertainties for Heat Flux 62 33  0.
 Uncertainties for Heat Flux 63 33  0.
 Uncertainties for Heat Flux 64 33  0.
 Uncertainties for Heat Flux 65 33  0.
 Uncertainties for Heat Flux 66 33  0.
 Uncertainties for Heat Flux 67 33  0.
 Uncertainties for Heat Flux 68 33  0.
 Uncertainties for Heat Flux 69 33  0.
 Uncertainties for Heat Flux 70 33  0.
 Uncertainties for Heat Flux 71 33  0.
 Uncertainties for Heat Flux 72 33  0.
 Uncertainties for Heat Flux 73 33  0.
 Uncertainties for Heat Flux 74 33  0.
 Uncertainties for Heat Flux 75 33  0.
 Uncertainties for Heat Flux 76 33  0.
 Uncertainties for Heat Flux 77 33  51.9809842
 Uncertainties for Heat Flux 78 33  63.1756846
 Uncertainties for Heat Flux 79 33  68.4641914
 Uncertainties for Heat Flux 80 33  74.4237607
 Uncertainties for Heat Flux 81 33  71.0227318
 Uncertainties for Heat Flux 82 33  63.1911774
 Uncertainties for Heat Flux 83 33  58.4168307
 Uncertainties for Heat Flux 84 33  54.6827265
 Uncertainties for Heat Flux 85 33  52.735171
 Uncertainties for Heat Flux 86 33  50.0950737
 Uncertainties for Heat Flux 87 33  46.3165487
 Uncertainties for Heat Flux 88 33  41.3349705
 Uncertainties for Heat Flux 89 33  43.5242538
 Uncertainties for Heat Flux 90 33  0.
 Uncertainties for Heat Flux 91 33  0.
 Uncertainties for Heat Flux 92 33  0.
 Uncertainties for Heat Flux -1 34  0.
 Uncertainties for Heat Flux 0 34  0.
 Uncertainties for Heat Flux 1 34  0.
 Uncertainties for Heat Flux 2 34  0.
 Uncertainties for Heat Flux 3 34  0.
 Uncertainties for Heat Flux 4 34  0.
 Uncertainties for Heat Flux 5 34  0.
 Uncertainties for Heat Flux 6 34  0.
 Uncertainties for Heat Flux 7 34  0.
 Uncertainties for Heat Flux 8 34  0.
 Uncertainties for Heat Flux 9 34  0.
 Uncertainties for Heat Flux 10 34  0.
 Uncertainties for Heat Flux 11 34  0.
 Uncertainties for Heat Flux 12 34  0.
 Uncertainties for Heat Flux 13 34  0.
 Uncertainties for Heat Flux 14 34  0.
 Uncertainties for Heat Flux 15 34  0.
 Uncertainties for Heat Flux 16 34  0.
 Uncertainties for Heat Flux 17 34  0.
 Uncertainties for Heat Flux 18 34  0.
 Uncertainties for Heat Flux 19 34  0.
 Uncertainties for Heat Flux 20 34  0.
 Uncertainties for Heat Flux 21 34  0.
 Uncertainties for Heat Flux 22 34  0.
 Uncertainties for Heat Flux 23 34  0.
 Uncertainties for Heat Flux 24 34  0.
 Uncertainties for Heat Flux 25 34  0.
 Uncertainties for Heat Flux 26 34  0.
 Uncertainties for Heat Flux 27 34  0.
 Uncertainties for Heat Flux 28 34  0.
 Uncertainties for Heat Flux 29 34  0.
 Uncertainties for Heat Flux 30 34  0.
 Uncertainties for Heat Flux 31 34  0.
 Uncertainties for Heat Flux 32 34  0.
 Uncertainties for Heat Flux 33 34  0.
 Uncertainties for Heat Flux 34 34  0.
 Uncertainties for Heat Flux 35 34  0.
 Uncertainties for Heat Flux 36 34  56.5855815
 Uncertainties for Heat Flux 37 34  65.7431539
 Uncertainties for Heat Flux 38 34  59.7262103
 Uncertainties for Heat Flux 39 34  52.4666328
 Uncertainties for Heat Flux 40 34  0.
 Uncertainties for Heat Flux 41 34  53.1506348
 Uncertainties for Heat Flux 42 34  52.4108721
 Uncertainties for Heat Flux 43 34  49.1363881
 Uncertainties for Heat Flux 44 34  48.6325798
 Uncertainties for Heat Flux 45 34  46.1950569
 Uncertainties for Heat Flux 46 34  45.9660772
 Uncertainties for Heat Flux 47 34  47.2378273
 Uncertainties for Heat Flux 48 34  49.1256841
 Uncertainties for Heat Flux 49 34  0.
 Uncertainties for Heat Flux 50 34  51.1579043
 Uncertainties for Heat Flux 51 34  51.2887726
 Uncertainties for Heat Flux 52 34  49.2100283
 Uncertainties for Heat Flux 53 34  45.1799304
 Uncertainties for Heat Flux 54 34  42.5023912
 Uncertainties for Heat Flux 55 34  41.6238588
 Uncertainties for Heat Flux 56 34  43.1309675
 Uncertainties for Heat Flux 57 34  44.2567863
 Uncertainties for Heat Flux 58 34  0.
 Uncertainties for Heat Flux 59 34  0.
 Uncertainties for Heat Flux 60 34  0.
 Uncertainties for Heat Flux 61 34  0.
 Uncertainties for Heat Flux 62 34  0.
 Uncertainties for Heat Flux 63 34  0.
 Uncertainties for Heat Flux 64 34  0.
 Uncertainties for Heat Flux 65 34  0.
 Uncertainties for Heat Flux 66 34  0.
 Uncertainties for Heat Flux 67 34  0.
 Uncertainties for Heat Flux 68 34  0.
 Uncertainties for Heat Flux 69 34  0.
 Uncertainties for Heat Flux 70 34  0.
 Uncertainties for Heat Flux 71 34  0.
 Uncertainties for Heat Flux 72 34  0.
 Uncertainties for Heat Flux 73 34  0.
 Uncertainties for Heat Flux 74 34  0.
 Uncertainties for Heat Flux 75 34  0.
 Uncertainties for Heat Flux 76 34  45.7977765
 Uncertainties for Heat Flux 77 34  61.6994858
 Uncertainties for Heat Flux 78 34  75.1215032
 Uncertainties for Heat Flux 79 34  67.8194466
 Uncertainties for Heat Flux 80 34  61.3173726
 Uncertainties for Heat Flux 81 34  58.4243355
 Uncertainties for Heat Flux 82 34  57.9366671
 Uncertainties for Heat Flux 83 34  56.7703565
 Uncertainties for Heat Flux 84 34  56.8494097
 Uncertainties for Heat Flux 85 34  55.8943176
 Uncertainties for Heat Flux 86 34  53.1747373
 Uncertainties for Heat Flux 87 34  49.5141754
 Uncertainties for Heat Flux 88 34  44.9814377
 Uncertainties for Heat Flux 89 34  0.
 Uncertainties for Heat Flux 90 34  0.
 Uncertainties for Heat Flux 91 34  0.
 Uncertainties for Heat Flux 92 34  0.
 Uncertainties for Heat Flux -1 35  47.8980459
 Uncertainties for Heat Flux 0 35  48.2823351
 Uncertainties for Heat Flux 1 35  49.1244698
 Uncertainties for Heat Flux 2 35  47.5280711
 Uncertainties for Heat Flux 3 35  0.
 Uncertainties for Heat Flux 4 35  0.
 Uncertainties for Heat Flux 5 35  0.
 Uncertainties for Heat Flux 6 35  0.
 Uncertainties for Heat Flux 7 35  0.
 Uncertainties for Heat Flux 8 35  0.
 Uncertainties for Heat Flux 9 35  0.
 Uncertainties for Heat Flux 10 35  0.
 Uncertainties for Heat Flux 11 35  0.
 Uncertainties for Heat Flux 12 35  0.
 Uncertainties for Heat Flux 13 35  0.
 Uncertainties for Heat Flux 14 35  0.
 Uncertainties for Heat Flux 15 35  0.
 Uncertainties for Heat Flux 16 35  0.
 Uncertainties for Heat Flux 17 35  0.
 Uncertainties for Heat Flux 18 35  0.
 Uncertainties for Heat Flux 19 35  0.
 Uncertainties for Heat Flux 20 35  0.
 Uncertainties for Heat Flux 21 35  0.
 Uncertainties for Heat Flux 22 35  0.
 Uncertainties for Heat Flux 23 35  0.
 Uncertainties for Heat Flux 24 35  0.
 Uncertainties for Heat Flux 25 35  0.
 Uncertainties for Heat Flux 26 35  0.
 Uncertainties for Heat Flux 27 35  0.
 Uncertainties for Heat Flux 28 35  0.
 Uncertainties for Heat Flux 29 35  0.
 Uncertainties for Heat Flux 30 35  0.
 Uncertainties for Heat Flux 31 35  0.
 Uncertainties for Heat Flux 32 35  0.
 Uncertainties for Heat Flux 33 35  0.
 Uncertainties for Heat Flux 34 35  0.
 Uncertainties for Heat Flux 35 35  0.
 Uncertainties for Heat Flux 36 35  62.1920607
 Uncertainties for Heat Flux 37 35  56.3226153
 Uncertainties for Heat Flux 38 35  53.7182337
 Uncertainties for Heat Flux 39 35  55.4716988
 Uncertainties for Heat Flux 40 35  0.
 Uncertainties for Heat Flux 41 35  0.
 Uncertainties for Heat Flux 42 35  57.8824526
 Uncertainties for Heat Flux 43 35  55.8387515
 Uncertainties for Heat Flux 44 35  55.3003553
 Uncertainties for Heat Flux 45 35  57.4557762
 Uncertainties for Heat Flux 46 35  58.8321215
 Uncertainties for Heat Flux 47 35  59.8127594
 Uncertainties for Heat Flux 48 35  58.04835
 Uncertainties for Heat Flux 49 35  0.
 Uncertainties for Heat Flux 50 35  0.
 Uncertainties for Heat Flux 51 35  0.
 Uncertainties for Heat Flux 52 35  53.0034866
 Uncertainties for Heat Flux 53 35  55.3303375
 Uncertainties for Heat Flux 54 35  45.199735
 Uncertainties for Heat Flux 55 35  42.5720558
 Uncertainties for Heat Flux 56 35  49.1835836
 Uncertainties for Heat Flux 57 35  0.
 Uncertainties for Heat Flux 58 35  0.
 Uncertainties for Heat Flux 59 35  0.
 Uncertainties for Heat Flux 60 35  0.
 Uncertainties for Heat Flux 61 35  0.
 Uncertainties for Heat Flux 62 35  0.
 Uncertainties for Heat Flux 63 35  0.
 Uncertainties for Heat Flux 64 35  0.
 Uncertainties for Heat Flux 65 35  0.
 Uncertainties for Heat Flux 66 35  0.
 Uncertainties for Heat Flux 67 35  0.
 Uncertainties for Heat Flux 68 35  20.
 Uncertainties for Heat Flux 69 35  20.
 Uncertainties for Heat Flux 70 35  20.
 Uncertainties for Heat Flux 71 35  0.
 Uncertainties for Heat Flux 72 35  0.
 Uncertainties for Heat Flux 73 35  0.
 Uncertainties for Heat Flux 74 35  0.
 Uncertainties for Heat Flux 75 35  46.2075916
 Uncertainties for Heat Flux 76 35  84.1646449
 Uncertainties for Heat Flux 77 35  84.6382345
 Uncertainties for Heat Flux 78 35  69.4086863
 Uncertainties for Heat Flux 79 35  63.2361196
 Uncertainties for Heat Flux 80 35  61.5374374
 Uncertainties for Heat Flux 81 35  61.0768407
 Uncertainties for Heat Flux 82 35  62.1398137
 Uncertainties for Heat Flux 83 35  61.1922595
 Uncertainties for Heat Flux 84 35  59.6133779
 Uncertainties for Heat Flux 85 35  58.1528409
 Uncertainties for Heat Flux 86 35  54.5933113
 Uncertainties for Heat Flux 87 35  51.1590144
 Uncertainties for Heat Flux 88 35  51.0766296
 Uncertainties for Heat Flux 89 35  47.8980459
 Uncertainties for Heat Flux 90 35  48.2823351
 Uncertainties for Heat Flux 91 35  49.1244698
 Uncertainties for Heat Flux 92 35  47.5280711
 Uncertainties for Heat Flux -1 36  49.7937279
 Uncertainties for Heat Flux 0 36  51.7368838
 Uncertainties for Heat Flux 1 36  52.0011686
 Uncertainties for Heat Flux 2 36  48.9192098
 Uncertainties for Heat Flux 3 36  0.
 Uncertainties for Heat Flux 4 36  0.
 Uncertainties for Heat Flux 5 36  0.
 Uncertainties for Heat Flux 6 36  0.
 Uncertainties for Heat Flux 7 36  0.
 Uncertainties for Heat Flux 8 36  0.
 Uncertainties for Heat Flux 9 36  0.
 Uncertainties for Heat Flux 10 36  0.
 Uncertainties for Heat Flux 11 36  0.
 Uncertainties for Heat Flux 12 36  0.
 Uncertainties for Heat Flux 13 36  0.
 Uncertainties for Heat Flux 14 36  0.
 Uncertainties for Heat Flux 15 36  0.
 Uncertainties for Heat Flux 16 36  0.
 Uncertainties for Heat Flux 17 36  0.
 Uncertainties for Heat Flux 18 36  0.
 Uncertainties for Heat Flux 19 36  0.
 Uncertainties for Heat Flux 20 36  0.
 Uncertainties for Heat Flux 21 36  0.
 Uncertainties for Heat Flux 22 36  0.
 Uncertainties for Heat Flux 23 36  0.
 Uncertainties for Heat Flux 24 36  0.
 Uncertainties for Heat Flux 25 36  0.
 Uncertainties for Heat Flux 26 36  0.
 Uncertainties for Heat Flux 27 36  0.
 Uncertainties for Heat Flux 28 36  0.
 Uncertainties for Heat Flux 29 36  0.
 Uncertainties for Heat Flux 30 36  0.
 Uncertainties for Heat Flux 31 36  0.
 Uncertainties for Heat Flux 32 36  0.
 Uncertainties for Heat Flux 33 36  0.
 Uncertainties for Heat Flux 34 36  0.
 Uncertainties for Heat Flux 35 36  0.
 Uncertainties for Heat Flux 36 36  0.
 Uncertainties for Heat Flux 37 36  0.
 Uncertainties for Heat Flux 38 36  0.
 Uncertainties for Heat Flux 39 36  0.
 Uncertainties for Heat Flux 40 36  0.
 Uncertainties for Heat Flux 41 36  0.
 Uncertainties for Heat Flux 42 36  0.
 Uncertainties for Heat Flux 43 36  0.
 Uncertainties for Heat Flux 44 36  52.2780075
 Uncertainties for Heat Flux 45 36  77.0601044
 Uncertainties for Heat Flux 46 36  68.9012057
 Uncertainties for Heat Flux 47 36  58.0484416
 Uncertainties for Heat Flux 48 36  0.
 Uncertainties for Heat Flux 49 36  0.
 Uncertainties for Heat Flux 50 36  0.
 Uncertainties for Heat Flux 51 36  0.
 Uncertainties for Heat Flux 52 36  0.
 Uncertainties for Heat Flux 53 36  0.
 Uncertainties for Heat Flux 54 36  0.
 Uncertainties for Heat Flux 55 36  0.
 Uncertainties for Heat Flux 56 36  0.
 Uncertainties for Heat Flux 57 36  0.
 Uncertainties for Heat Flux 58 36  0.
 Uncertainties for Heat Flux 59 36  0.
 Uncertainties for Heat Flux 60 36  0.
 Uncertainties for Heat Flux 61 36  0.
 Uncertainties for Heat Flux 62 36  0.
 Uncertainties for Heat Flux 63 36  0.
 Uncertainties for Heat Flux 64 36  0.
 Uncertainties for Heat Flux 65 36  0.
 Uncertainties for Heat Flux 66 36  0.
 Uncertainties for Heat Flux 67 36  0.
 Uncertainties for Heat Flux 68 36  20.
 Uncertainties for Heat Flux 69 36  20.
 Uncertainties for Heat Flux 70 36  20.
 Uncertainties for Heat Flux 71 36  20.
 Uncertainties for Heat Flux 72 36  20.
 Uncertainties for Heat Flux 73 36  39.6724091
 Uncertainties for Heat Flux 74 36  38.4306471
 Uncertainties for Heat Flux 75 36  46.3913237
 Uncertainties for Heat Flux 76 36  87.4792658
 Uncertainties for Heat Flux 77 36  76.8832041
 Uncertainties for Heat Flux 78 36  57.9279141
 Uncertainties for Heat Flux 79 36  0.
 Uncertainties for Heat Flux 80 36  58.1808472
 Uncertainties for Heat Flux 81 36  63.9883194
 Uncertainties for Heat Flux 82 36  57.9896393
 Uncertainties for Heat Flux 83 36  63.4100176
 Uncertainties for Heat Flux 84 36  61.4009285
 Uncertainties for Heat Flux 85 36  51.8480256
 Uncertainties for Heat Flux 86 36  50.3723488
 Uncertainties for Heat Flux 87 36  55.3308551
 Uncertainties for Heat Flux 88 36  51.1721916
 Uncertainties for Heat Flux 89 36  49.7937279
 Uncertainties for Heat Flux 90 36  51.7368838
 Uncertainties for Heat Flux 91 36  52.0011686
 Uncertainties for Heat Flux 92 36  48.9192098
 Uncertainties for Heat Flux -1 37  48.3099963
 Uncertainties for Heat Flux 0 37  52.2788874
 Uncertainties for Heat Flux 1 37  55.0787926
 Uncertainties for Heat Flux 2 37  55.0705833
 Uncertainties for Heat Flux 3 37  54.7078883
 Uncertainties for Heat Flux 4 37  0.
 Uncertainties for Heat Flux 5 37  0.
 Uncertainties for Heat Flux 6 37  0.
 Uncertainties for Heat Flux 7 37  0.
 Uncertainties for Heat Flux 8 37  0.
 Uncertainties for Heat Flux 9 37  0.
 Uncertainties for Heat Flux 10 37  0.
 Uncertainties for Heat Flux 11 37  0.
 Uncertainties for Heat Flux 12 37  0.
 Uncertainties for Heat Flux 13 37  0.
 Uncertainties for Heat Flux 14 37  0.
 Uncertainties for Heat Flux 15 37  0.
 Uncertainties for Heat Flux 16 37  0.
 Uncertainties for Heat Flux 17 37  0.
 Uncertainties for Heat Flux 18 37  0.
 Uncertainties for Heat Flux 19 37  0.
 Uncertainties for Heat Flux 20 37  0.
 Uncertainties for Heat Flux 21 37  0.
 Uncertainties for Heat Flux 22 37  0.
 Uncertainties for Heat Flux 23 37  0.
 Uncertainties for Heat Flux 24 37  0.
 Uncertainties for Heat Flux 25 37  0.
 Uncertainties for Heat Flux 26 37  0.
 Uncertainties for Heat Flux 27 37  0.
 Uncertainties for Heat Flux 28 37  0.
 Uncertainties for Heat Flux 29 37  0.
 Uncertainties for Heat Flux 30 37  0.
 Uncertainties for Heat Flux 31 37  0.
 Uncertainties for Heat Flux 32 37  0.
 Uncertainties for Heat Flux 33 37  0.
 Uncertainties for Heat Flux 34 37  0.
 Uncertainties for Heat Flux 35 37  0.
 Uncertainties for Heat Flux 36 37  0.
 Uncertainties for Heat Flux 37 37  0.
 Uncertainties for Heat Flux 38 37  0.
 Uncertainties for Heat Flux 39 37  0.
 Uncertainties for Heat Flux 40 37  0.
 Uncertainties for Heat Flux 41 37  0.
 Uncertainties for Heat Flux 42 37  0.
 Uncertainties for Heat Flux 43 37  0.
 Uncertainties for Heat Flux 44 37  0.
 Uncertainties for Heat Flux 45 37  0.
 Uncertainties for Heat Flux 46 37  0.
 Uncertainties for Heat Flux 47 37  0.
 Uncertainties for Heat Flux 48 37  0.
 Uncertainties for Heat Flux 49 37  0.
 Uncertainties for Heat Flux 50 37  0.
 Uncertainties for Heat Flux 51 37  0.
 Uncertainties for Heat Flux 52 37  0.
 Uncertainties for Heat Flux 53 37  0.
 Uncertainties for Heat Flux 54 37  0.
 Uncertainties for Heat Flux 55 37  0.
 Uncertainties for Heat Flux 56 37  0.
 Uncertainties for Heat Flux 57 37  0.
 Uncertainties for Heat Flux 58 37  0.
 Uncertainties for Heat Flux 59 37  0.
 Uncertainties for Heat Flux 60 37  0.
 Uncertainties for Heat Flux 61 37  0.
 Uncertainties for Heat Flux 62 37  0.
 Uncertainties for Heat Flux 63 37  0.
 Uncertainties for Heat Flux 64 37  0.
 Uncertainties for Heat Flux 65 37  0.
 Uncertainties for Heat Flux 66 37  0.
 Uncertainties for Heat Flux 67 37  0.
 Uncertainties for Heat Flux 68 37  0.
 Uncertainties for Heat Flux 69 37  0.
 Uncertainties for Heat Flux 70 37  20.
 Uncertainties for Heat Flux 71 37  20.
 Uncertainties for Heat Flux 72 37  0.
 Uncertainties for Heat Flux 73 37  0.
 Uncertainties for Heat Flux 74 37  0.
 Uncertainties for Heat Flux 75 37  28.9635582
 Uncertainties for Heat Flux 76 37  53.3176638
 Uncertainties for Heat Flux 77 37  60.4265679
 Uncertainties for Heat Flux 78 37  0.
 Uncertainties for Heat Flux 79 37  0.
 Uncertainties for Heat Flux 80 37  0.
 Uncertainties for Heat Flux 81 37  40.4121869
 Uncertainties for Heat Flux 82 37  57.6243473
 Uncertainties for Heat Flux 83 37  59.9434687
 Uncertainties for Heat Flux 84 37  63.2537231
 Uncertainties for Heat Flux 85 37  66.4611104
 Uncertainties for Heat Flux 86 37  0.
 Uncertainties for Heat Flux 87 37  50.3625014
 Uncertainties for Heat Flux 88 37  50.1133512
 Uncertainties for Heat Flux 89 37  48.3099963
 Uncertainties for Heat Flux 90 37  52.2788874
 Uncertainties for Heat Flux 91 37  55.0787926
 Uncertainties for Heat Flux 92 37  55.0705833
 Uncertainties for Heat Flux -1 38  61.0061938
 Uncertainties for Heat Flux 0 38  61.4195709
 Uncertainties for Heat Flux 1 38  60.0633405
 Uncertainties for Heat Flux 2 38  59.0576833
 Uncertainties for Heat Flux 3 38  58.6193174
 Uncertainties for Heat Flux 4 38  58.7405001
 Uncertainties for Heat Flux 5 38  55.5653712
 Uncertainties for Heat Flux 6 38  56.8142598
 Uncertainties for Heat Flux 7 38  66.0009537
 Uncertainties for Heat Flux 8 38  57.8512573
 Uncertainties for Heat Flux 9 38  62.0550469
 Uncertainties for Heat Flux 10 38  57.637352
 Uncertainties for Heat Flux 11 38  57.251091
 Uncertainties for Heat Flux 12 38  57.0677134
 Uncertainties for Heat Flux 13 38  58.4895969
 Uncertainties for Heat Flux 14 38  0.
 Uncertainties for Heat Flux 15 38  0.
 Uncertainties for Heat Flux 16 38  0.
 Uncertainties for Heat Flux 17 38  0.
 Uncertainties for Heat Flux 18 38  0.
 Uncertainties for Heat Flux 19 38  0.
 Uncertainties for Heat Flux 20 38  0.
 Uncertainties for Heat Flux 21 38  0.
 Uncertainties for Heat Flux 22 38  0.
 Uncertainties for Heat Flux 23 38  0.
 Uncertainties for Heat Flux 24 38  0.
 Uncertainties for Heat Flux 25 38  0.
 Uncertainties for Heat Flux 26 38  0.
 Uncertainties for Heat Flux 27 38  0.
 Uncertainties for Heat Flux 28 38  0.
 Uncertainties for Heat Flux 29 38  0.
 Uncertainties for Heat Flux 30 38  0.
 Uncertainties for Heat Flux 31 38  0.
 Uncertainties for Heat Flux 32 38  0.
 Uncertainties for Heat Flux 33 38  0.
 Uncertainties for Heat Flux 34 38  0.
 Uncertainties for Heat Flux 35 38  0.
 Uncertainties for Heat Flux 36 38  0.
 Uncertainties for Heat Flux 37 38  0.
 Uncertainties for Heat Flux 38 38  0.
 Uncertainties for Heat Flux 39 38  0.
 Uncertainties for Heat Flux 40 38  0.
 Uncertainties for Heat Flux 41 38  0.
 Uncertainties for Heat Flux 42 38  0.
 Uncertainties for Heat Flux 43 38  0.
 Uncertainties for Heat Flux 44 38  0.
 Uncertainties for Heat Flux 45 38  0.
 Uncertainties for Heat Flux 46 38  0.
 Uncertainties for Heat Flux 47 38  0.
 Uncertainties for Heat Flux 48 38  0.
 Uncertainties for Heat Flux 49 38  0.
 Uncertainties for Heat Flux 50 38  0.
 Uncertainties for Heat Flux 51 38  0.
 Uncertainties for Heat Flux 52 38  0.
 Uncertainties for Heat Flux 53 38  0.
 Uncertainties for Heat Flux 54 38  0.
 Uncertainties for Heat Flux 55 38  0.
 Uncertainties for Heat Flux 56 38  0.
 Uncertainties for Heat Flux 57 38  0.
 Uncertainties for Heat Flux 58 38  0.
 Uncertainties for Heat Flux 59 38  0.
 Uncertainties for Heat Flux 60 38  0.
 Uncertainties for Heat Flux 61 38  0.
 Uncertainties for Heat Flux 62 38  0.
 Uncertainties for Heat Flux 63 38  0.
 Uncertainties for Heat Flux 64 38  0.
 Uncertainties for Heat Flux 65 38  0.
 Uncertainties for Heat Flux 66 38  0.
 Uncertainties for Heat Flux 67 38  0.
 Uncertainties for Heat Flux 68 38  0.
 Uncertainties for Heat Flux 69 38  0.
 Uncertainties for Heat Flux 70 38  0.
 Uncertainties for Heat Flux 71 38  0.
 Uncertainties for Heat Flux 72 38  0.
 Uncertainties for Heat Flux 73 38  23.1124496
 Uncertainties for Heat Flux 74 38  23.8279037
 Uncertainties for Heat Flux 75 38  27.5767848
 Uncertainties for Heat Flux 76 38  40.490235
 Uncertainties for Heat Flux 77 38  37.3914541
 Uncertainties for Heat Flux 78 38  0.
 Uncertainties for Heat Flux 79 38  0.
 Uncertainties for Heat Flux 80 38  0.
 Uncertainties for Heat Flux 81 38  0.
 Uncertainties for Heat Flux 82 38  0.
 Uncertainties for Heat Flux 83 38  0.
 Uncertainties for Heat Flux 84 38  45.1166941
 Uncertainties for Heat Flux 85 38  41.357889
 Uncertainties for Heat Flux 86 38  62.0585378
 Uncertainties for Heat Flux 87 38  66.5080249
 Uncertainties for Heat Flux 88 38  62.4510905
 Uncertainties for Heat Flux 89 38  61.0061938
 Uncertainties for Heat Flux 90 38  61.4195709
 Uncertainties for Heat Flux 91 38  60.0633405
 Uncertainties for Heat Flux 92 38  59.0576833
 Uncertainties for Heat Flux -1 39  76.273009
 Uncertainties for Heat Flux 0 39  68.4743118
 Uncertainties for Heat Flux 1 39  62.9375356
 Uncertainties for Heat Flux 2 39  64.8408178
 Uncertainties for Heat Flux 3 39  65.2543602
 Uncertainties for Heat Flux 4 39  67.845389
 Uncertainties for Heat Flux 5 39  62.3660723
 Uncertainties for Heat Flux 6 39  58.7744586
 Uncertainties for Heat Flux 7 39  73.4641635
 Uncertainties for Heat Flux 8 39  79.5345052
 Uncertainties for Heat Flux 9 39  73.5550626
 Uncertainties for Heat Flux 10 39  65.9685949
 Uncertainties for Heat Flux 11 39  66.1586609
 Uncertainties for Heat Flux 12 39  70.9392268
 Uncertainties for Heat Flux 13 39  72.4756076
 Uncertainties for Heat Flux 14 39  64.1635742
 Uncertainties for Heat Flux 15 39  0.
 Uncertainties for Heat Flux 16 39  0.
 Uncertainties for Heat Flux 17 39  0.
 Uncertainties for Heat Flux 18 39  20.
 Uncertainties for Heat Flux 19 39  20.
 Uncertainties for Heat Flux 20 39  0.
 Uncertainties for Heat Flux 21 39  0.
 Uncertainties for Heat Flux 22 39  0.
 Uncertainties for Heat Flux 23 39  0.
 Uncertainties for Heat Flux 24 39  0.
 Uncertainties for Heat Flux 25 39  0.
 Uncertainties for Heat Flux 26 39  0.
 Uncertainties for Heat Flux 27 39  0.
 Uncertainties for Heat Flux 28 39  0.
 Uncertainties for Heat Flux 29 39  0.
 Uncertainties for Heat Flux 30 39  0.
 Uncertainties for Heat Flux 31 39  0.
 Uncertainties for Heat Flux 32 39  0.
 Uncertainties for Heat Flux 33 39  0.
 Uncertainties for Heat Flux 34 39  0.
 Uncertainties for Heat Flux 35 39  0.
 Uncertainties for Heat Flux 36 39  0.
 Uncertainties for Heat Flux 37 39  0.
 Uncertainties for Heat Flux 38 39  0.
 Uncertainties for Heat Flux 39 39  0.
 Uncertainties for Heat Flux 40 39  0.
 Uncertainties for Heat Flux 41 39  0.
 Uncertainties for Heat Flux 42 39  0.
 Uncertainties for Heat Flux 43 39  0.
 Uncertainties for Heat Flux 44 39  0.
 Uncertainties for Heat Flux 45 39  0.
 Uncertainties for Heat Flux 46 39  0.
 Uncertainties for Heat Flux 47 39  0.
 Uncertainties for Heat Flux 48 39  0.
 Uncertainties for Heat Flux 49 39  0.
 Uncertainties for Heat Flux 50 39  0.
 Uncertainties for Heat Flux 51 39  0.
 Uncertainties for Heat Flux 52 39  0.
 Uncertainties for Heat Flux 53 39  0.
 Uncertainties for Heat Flux 54 39  0.
 Uncertainties for Heat Flux 55 39  0.
 Uncertainties for Heat Flux 56 39  0.
 Uncertainties for Heat Flux 57 39  0.
 Uncertainties for Heat Flux 58 39  0.
 Uncertainties for Heat Flux 59 39  0.
 Uncertainties for Heat Flux 60 39  0.
 Uncertainties for Heat Flux 61 39  0.
 Uncertainties for Heat Flux 62 39  0.
 Uncertainties for Heat Flux 63 39  0.
 Uncertainties for Heat Flux 64 39  0.
 Uncertainties for Heat Flux 65 39  0.
 Uncertainties for Heat Flux 66 39  0.
 Uncertainties for Heat Flux 67 39  0.
 Uncertainties for Heat Flux 68 39  0.
 Uncertainties for Heat Flux 69 39  0.
 Uncertainties for Heat Flux 70 39  0.
 Uncertainties for Heat Flux 71 39  0.
 Uncertainties for Heat Flux 72 39  0.
 Uncertainties for Heat Flux 73 39  23.6660175
 Uncertainties for Heat Flux 74 39  20.
 Uncertainties for Heat Flux 75 39  20.
 Uncertainties for Heat Flux 76 39  21.3001158
 Uncertainties for Heat Flux 77 39  0.
 Uncertainties for Heat Flux 78 39  0.
 Uncertainties for Heat Flux 79 39  0.
 Uncertainties for Heat Flux 80 39  0.
 Uncertainties for Heat Flux 81 39  0.
 Uncertainties for Heat Flux 82 39  0.
 Uncertainties for Heat Flux 83 39  0.
 Uncertainties for Heat Flux 84 39  0.
 Uncertainties for Heat Flux 85 39  20.
 Uncertainties for Heat Flux 86 39  23.3404449
 Uncertainties for Heat Flux 87 39  54.8667202
 Uncertainties for Heat Flux 88 39  79.3905729
 Uncertainties for Heat Flux 89 39  76.273009
 Uncertainties for Heat Flux 90 39  68.4743118
 Uncertainties for Heat Flux 91 39  62.9375356
 Uncertainties for Heat Flux 92 39  64.8408178
 Uncertainties for Heat Flux -1 40  58.3026975
 Uncertainties for Heat Flux 0 40  84.2419128
 Uncertainties for Heat Flux 1 40  79.7108154
 Uncertainties for Heat Flux 2 40  76.0332743
 Uncertainties for Heat Flux 3 40  74.7862523
 Uncertainties for Heat Flux 4 40  59.8079503
 Uncertainties for Heat Flux 5 40  20.
 Uncertainties for Heat Flux 6 40  0.
 Uncertainties for Heat Flux 7 40  20.
 Uncertainties for Heat Flux 8 40  20.
 Uncertainties for Heat Flux 9 40  20.
 Uncertainties for Heat Flux 10 40  20.
 Uncertainties for Heat Flux 11 40  20.
 Uncertainties for Heat Flux 12 40  20.
 Uncertainties for Heat Flux 13 40  20.
 Uncertainties for Heat Flux 14 40  20.
 Uncertainties for Heat Flux 15 40  20.
 Uncertainties for Heat Flux 16 40  20.
 Uncertainties for Heat Flux 17 40  20.
 Uncertainties for Heat Flux 18 40  20.
 Uncertainties for Heat Flux 19 40  20.
 Uncertainties for Heat Flux 20 40  0.
 Uncertainties for Heat Flux 21 40  0.
 Uncertainties for Heat Flux 22 40  0.
 Uncertainties for Heat Flux 23 40  0.
 Uncertainties for Heat Flux 24 40  0.
 Uncertainties for Heat Flux 25 40  0.
 Uncertainties for Heat Flux 26 40  0.
 Uncertainties for Heat Flux 27 40  0.
 Uncertainties for Heat Flux 28 40  0.
 Uncertainties for Heat Flux 29 40  0.
 Uncertainties for Heat Flux 30 40  0.
 Uncertainties for Heat Flux 31 40  0.
 Uncertainties for Heat Flux 32 40  0.
 Uncertainties for Heat Flux 33 40  0.
 Uncertainties for Heat Flux 34 40  0.
 Uncertainties for Heat Flux 35 40  0.
 Uncertainties for Heat Flux 36 40  0.
 Uncertainties for Heat Flux 37 40  0.
 Uncertainties for Heat Flux 38 40  0.
 Uncertainties for Heat Flux 39 40  0.
 Uncertainties for Heat Flux 40 40  0.
 Uncertainties for Heat Flux 41 40  0.
 Uncertainties for Heat Flux 42 40  0.
 Uncertainties for Heat Flux 43 40  0.
 Uncertainties for Heat Flux 44 40  0.
 Uncertainties for Heat Flux 45 40  0.
 Uncertainties for Heat Flux 46 40  0.
 Uncertainties for Heat Flux 47 40  0.
 Uncertainties for Heat Flux 48 40  0.
 Uncertainties for Heat Flux 49 40  0.
 Uncertainties for Heat Flux 50 40  0.
 Uncertainties for Heat Flux 51 40  0.
 Uncertainties for Heat Flux 52 40  0.
 Uncertainties for Heat Flux 53 40  0.
 Uncertainties for Heat Flux 54 40  0.
 Uncertainties for Heat Flux 55 40  0.
 Uncertainties for Heat Flux 56 40  0.
 Uncertainties for Heat Flux 57 40  0.
 Uncertainties for Heat Flux 58 40  0.
 Uncertainties for Heat Flux 59 40  0.
 Uncertainties for Heat Flux 60 40  0.
 Uncertainties for Heat Flux 61 40  0.
 Uncertainties for Heat Flux 62 40  0.
 Uncertainties for Heat Flux 63 40  0.
 Uncertainties for Heat Flux 64 40  0.
 Uncertainties for Heat Flux 65 40  0.
 Uncertainties for Heat Flux 66 40  0.
 Uncertainties for Heat Flux 67 40  0.
 Uncertainties for Heat Flux 68 40  0.
 Uncertainties for Heat Flux 69 40  0.
 Uncertainties for Heat Flux 70 40  0.
 Uncertainties for Heat Flux 71 40  0.
 Uncertainties for Heat Flux 72 40  0.
 Uncertainties for Heat Flux 73 40  0.
 Uncertainties for Heat Flux 74 40  0.
 Uncertainties for Heat Flux 75 40  0.
 Uncertainties for Heat Flux 76 40  0.
 Uncertainties for Heat Flux 77 40  0.
 Uncertainties for Heat Flux 78 40  0.
 Uncertainties for Heat Flux 79 40  0.
 Uncertainties for Heat Flux 80 40  0.
 Uncertainties for Heat Flux 81 40  0.
 Uncertainties for Heat Flux 82 40  0.
 Uncertainties for Heat Flux 83 40  0.
 Uncertainties for Heat Flux 84 40  0.
 Uncertainties for Heat Flux 85 40  0.
 Uncertainties for Heat Flux 86 40  20.
 Uncertainties for Heat Flux 87 40  20.
 Uncertainties for Heat Flux 88 40  30.2206078
 Uncertainties for Heat Flux 89 40  58.3026975
 Uncertainties for Heat Flux 90 40  84.2419128
 Uncertainties for Heat Flux 91 40  79.7108154
 Uncertainties for Heat Flux 92 40  76.0332743
 Uncertainties for Heat Flux -1 41  0.
 Uncertainties for Heat Flux 0 41  0.
 Uncertainties for Heat Flux 1 41  0.
 Uncertainties for Heat Flux 2 41  0.
 Uncertainties for Heat Flux 3 41  0.
 Uncertainties for Heat Flux 4 41  0.
 Uncertainties for Heat Flux 5 41  0.
 Uncertainties for Heat Flux 6 41  0.
 Uncertainties for Heat Flux 7 41  0.
 Uncertainties for Heat Flux 8 41  0.
 Uncertainties for Heat Flux 9 41  0.
 Uncertainties for Heat Flux 10 41  0.
 Uncertainties for Heat Flux 11 41  0.
 Uncertainties for Heat Flux 12 41  0.
 Uncertainties for Heat Flux 13 41  0.
 Uncertainties for Heat Flux 14 41  0.
 Uncertainties for Heat Flux 15 41  0.
 Uncertainties for Heat Flux 16 41  0.
 Uncertainties for Heat Flux 17 41  0.
 Uncertainties for Heat Flux 18 41  0.
 Uncertainties for Heat Flux 19 41  0.
 Uncertainties for Heat Flux 20 41  0.
 Uncertainties for Heat Flux 21 41  0.
 Uncertainties for Heat Flux 22 41  0.
 Uncertainties for Heat Flux 23 41  0.
 Uncertainties for Heat Flux 24 41  0.
 Uncertainties for Heat Flux 25 41  0.
 Uncertainties for Heat Flux 26 41  0.
 Uncertainties for Heat Flux 27 41  0.
 Uncertainties for Heat Flux 28 41  0.
 Uncertainties for Heat Flux 29 41  0.
 Uncertainties for Heat Flux 30 41  0.
 Uncertainties for Heat Flux 31 41  0.
 Uncertainties for Heat Flux 32 41  0.
 Uncertainties for Heat Flux 33 41  0.
 Uncertainties for Heat Flux 34 41  0.
 Uncertainties for Heat Flux 35 41  0.
 Uncertainties for Heat Flux 36 41  0.
 Uncertainties for Heat Flux 37 41  0.
 Uncertainties for Heat Flux 38 41  0.
 Uncertainties for Heat Flux 39 41  0.
 Uncertainties for Heat Flux 40 41  0.
 Uncertainties for Heat Flux 41 41  0.
 Uncertainties for Heat Flux 42 41  0.
 Uncertainties for Heat Flux 43 41  0.
 Uncertainties for Heat Flux 44 41  0.
 Uncertainties for Heat Flux 45 41  0.
 Uncertainties for Heat Flux 46 41  0.
 Uncertainties for Heat Flux 47 41  0.
 Uncertainties for Heat Flux 48 41  0.
 Uncertainties for Heat Flux 49 41  0.
 Uncertainties for Heat Flux 50 41  0.
 Uncertainties for Heat Flux 51 41  0.
 Uncertainties for Heat Flux 52 41  0.
 Uncertainties for Heat Flux 53 41  0.
 Uncertainties for Heat Flux 54 41  0.
 Uncertainties for Heat Flux 55 41  0.
 Uncertainties for Heat Flux 56 41  0.
 Uncertainties for Heat Flux 57 41  0.
 Uncertainties for Heat Flux 58 41  0.
 Uncertainties for Heat Flux 59 41  0.
 Uncertainties for Heat Flux 60 41  0.
 Uncertainties for Heat Flux 61 41  0.
 Uncertainties for Heat Flux 62 41  0.
 Uncertainties for Heat Flux 63 41  0.
 Uncertainties for Heat Flux 64 41  0.
 Uncertainties for Heat Flux 65 41  0.
 Uncertainties for Heat Flux 66 41  0.
 Uncertainties for Heat Flux 67 41  0.
 Uncertainties for Heat Flux 68 41  0.
 Uncertainties for Heat Flux 69 41  0.
 Uncertainties for Heat Flux 70 41  0.
 Uncertainties for Heat Flux 71 41  0.
 Uncertainties for Heat Flux 72 41  0.
 Uncertainties for Heat Flux 73 41  0.
 Uncertainties for Heat Flux 74 41  0.
 Uncertainties for Heat Flux 75 41  0.
 Uncertainties for Heat Flux 76 41  0.
 Uncertainties for Heat Flux 77 41  0.
 Uncertainties for Heat Flux 78 41  0.
 Uncertainties for Heat Flux 79 41  0.
 Uncertainties for Heat Flux 80 41  0.
 Uncertainties for Heat Flux 81 41  0.
 Uncertainties for Heat Flux 82 41  0.
 Uncertainties for Heat Flux 83 41  0.
 Uncertainties for Heat Flux 84 41  0.
 Uncertainties for Heat Flux 85 41  0.
 Uncertainties for Heat Flux 86 41  0.
 Uncertainties for Heat Flux 87 41  0.
 Uncertainties for Heat Flux 88 41  0.
 Uncertainties for Heat Flux 89 41  0.
 Uncertainties for Heat Flux 90 41  0.
 Uncertainties for Heat Flux 91 41  0.
 Uncertainties for Heat Flux 92 41  0.
 Uncertainties for Heat Flux -1 42  0.
 Uncertainties for Heat Flux 0 42  0.
 Uncertainties for Heat Flux 1 42  0.
 Uncertainties for Heat Flux 2 42  0.
 Uncertainties for Heat Flux 3 42  0.
 Uncertainties for Heat Flux 4 42  0.
 Uncertainties for Heat Flux 5 42  0.
 Uncertainties for Heat Flux 6 42  0.
 Uncertainties for Heat Flux 7 42  0.
 Uncertainties for Heat Flux 8 42  0.
 Uncertainties for Heat Flux 9 42  0.
 Uncertainties for Heat Flux 10 42  0.
 Uncertainties for Heat Flux 11 42  0.
 Uncertainties for Heat Flux 12 42  0.
 Uncertainties for Heat Flux 13 42  0.
 Uncertainties for Heat Flux 14 42  0.
 Uncertainties for Heat Flux 15 42  0.
 Uncertainties for Heat Flux 16 42  0.
 Uncertainties for Heat Flux 17 42  0.
 Uncertainties for Heat Flux 18 42  0.
 Uncertainties for Heat Flux 19 42  0.
 Uncertainties for Heat Flux 20 42  0.
 Uncertainties for Heat Flux 21 42  0.
 Uncertainties for Heat Flux 22 42  0.
 Uncertainties for Heat Flux 23 42  0.
 Uncertainties for Heat Flux 24 42  0.
 Uncertainties for Heat Flux 25 42  0.
 Uncertainties for Heat Flux 26 42  0.
 Uncertainties for Heat Flux 27 42  0.
 Uncertainties for Heat Flux 28 42  0.
 Uncertainties for Heat Flux 29 42  0.
 Uncertainties for Heat Flux 30 42  0.
 Uncertainties for Heat Flux 31 42  0.
 Uncertainties for Heat Flux 32 42  0.
 Uncertainties for Heat Flux 33 42  0.
 Uncertainties for Heat Flux 34 42  0.
 Uncertainties for Heat Flux 35 42  0.
 Uncertainties for Heat Flux 36 42  0.
 Uncertainties for Heat Flux 37 42  0.
 Uncertainties for Heat Flux 38 42  0.
 Uncertainties for Heat Flux 39 42  0.
 Uncertainties for Heat Flux 40 42  0.
 Uncertainties for Heat Flux 41 42  0.
 Uncertainties for Heat Flux 42 42  0.
 Uncertainties for Heat Flux 43 42  25.1049745
 Uncertainties for Heat Flux 44 42  34.3958925
 Uncertainties for Heat Flux 45 42  30.0502332
 Uncertainties for Heat Flux 46 42  24.851162
 Uncertainties for Heat Flux 47 42  20.6751083
 Uncertainties for Heat Flux 48 42  20.
 Uncertainties for Heat Flux 49 42  20.
 Uncertainties for Heat Flux 50 42  20.
 Uncertainties for Heat Flux 51 42  20.
 Uncertainties for Heat Flux 52 42  20.
 Uncertainties for Heat Flux 53 42  20.
 Uncertainties for Heat Flux 54 42  20.
 Uncertainties for Heat Flux 55 42  20.
 Uncertainties for Heat Flux 56 42  20.
 Uncertainties for Heat Flux 57 42  20.
 Uncertainties for Heat Flux 58 42  20.
 Uncertainties for Heat Flux 59 42  20.
 Uncertainties for Heat Flux 60 42  20.
 Uncertainties for Heat Flux 61 42  21.8483391
 Uncertainties for Heat Flux 62 42  26.7026876
 Uncertainties for Heat Flux 63 42  20.7786795
 Uncertainties for Heat Flux 64 42  20.
 Uncertainties for Heat Flux 65 42  0.
 Uncertainties for Heat Flux 66 42  0.
 Uncertainties for Heat Flux 67 42  20.
 Uncertainties for Heat Flux 68 42  20.
 Uncertainties for Heat Flux 69 42  20.
 Uncertainties for Heat Flux 70 42  20.
 Uncertainties for Heat Flux 71 42  0.
 Uncertainties for Heat Flux 72 42  0.
 Uncertainties for Heat Flux 73 42  0.
 Uncertainties for Heat Flux 74 42  0.
 Uncertainties for Heat Flux 75 42  0.
 Uncertainties for Heat Flux 76 42  20.
 Uncertainties for Heat Flux 77 42  20.
 Uncertainties for Heat Flux 78 42  20.
 Uncertainties for Heat Flux 79 42  20.
 Uncertainties for Heat Flux 80 42  20.
 Uncertainties for Heat Flux 81 42  20.
 Uncertainties for Heat Flux 82 42  20.
 Uncertainties for Heat Flux 83 42  20.
 Uncertainties for Heat Flux 84 42  20.
 Uncertainties for Heat Flux 85 42  20.
 Uncertainties for Heat Flux 86 42  20.
 Uncertainties for Heat Flux 87 42  20.
 Uncertainties for Heat Flux 88 42  0.
 Uncertainties for Heat Flux 89 42  0.
 Uncertainties for Heat Flux 90 42  0.
 Uncertainties for Heat Flux 91 42  0.
 Uncertainties for Heat Flux 92 42  0.
(PID.TID 0000.0001) GRDCHK_READPARMS: opening data.grdchk
(PID.TID 0000.0001)  OPEN_COPY_DATA_FILE: opening file data.grdchk
(PID.TID 0000.0001) // =======================================================
(PID.TID 0000.0001) // Parameter file "data.grdchk"
(PID.TID 0000.0001) // =======================================================
(PID.TID 0000.0001) >
(PID.TID 0000.0001) ># *******************
(PID.TID 0000.0001) ># ECCO gradient check
(PID.TID 0000.0001) ># *******************
(PID.TID 0000.0001) > &GRDCHK_NML
(PID.TID 0000.0001) > grdchk_eps       = 1.d-1,
(PID.TID 0000.0001) > iGloPos          = 76,
(PID.TID 0000.0001) > jGloPos          = 27,
(PID.TID 0000.0001) > kGloPos          = 1,
(PID.TID 0000.0001) >### nbeg             = 1,
(PID.TID 0000.0001) > nstep            = 1,
(PID.TID 0000.0001) > nend             = 3,
(PID.TID 0000.0001) > grdchkvarindex   =24,
(PID.TID 0000.0001) > &
(PID.TID 0000.0001) 
(PID.TID 0000.0001) GRDCHK_READPARMS: finished reading data.grdchk
(PID.TID 0000.0001) 
(PID.TID 0000.0001) // =======================================================
(PID.TID 0000.0001) // Gradient check configuration  >>> START <<<
(PID.TID 0000.0001) // =======================================================
(PID.TID 0000.0001) 
(PID.TID 0000.0001)   eps:                              0.100E+00
(PID.TID 0000.0001)   First location:                           0
(PID.TID 0000.0001)   Last location:                            3
(PID.TID 0000.0001)   Increment:                                1
(PID.TID 0000.0001) 
(PID.TID 0000.0001) // =======================================================
(PID.TID 0000.0001) // Gradient check configuration  >>> END <<<
(PID.TID 0000.0001) // =======================================================
(PID.TID 0000.0001) 
(PID.TID 0000.0001) SET_PARMS: done
(PID.TID 0000.0001) Enter INI_VERTICAL_GRID: setInterFDr=    T ; setCenterDr=    F
(PID.TID 0000.0001) %MON XC_max                       =   3.5800000000000E+02
(PID.TID 0000.0001) %MON XC_min                       =   2.0000000000000E+00
(PID.TID 0000.0001) %MON XC_mean                      =   1.8000000000000E+02
(PID.TID 0000.0001) %MON XC_sd                        =   1.0391663325314E+02
(PID.TID 0000.0001) %MON XG_max                       =   3.5600000000000E+02
(PID.TID 0000.0001) %MON XG_min                       =   0.0000000000000E+00
(PID.TID 0000.0001) %MON XG_mean                      =   1.7800000000000E+02
(PID.TID 0000.0001) %MON XG_sd                        =   1.0391663325314E+02
(PID.TID 0000.0001) %MON DXC_max                      =   4.4443898815675E+05
(PID.TID 0000.0001) %MON DXC_min                      =   9.2460385861875E+04
(PID.TID 0000.0001) %MON DXC_mean                     =   3.1372497618153E+05
(PID.TID 0000.0001) %MON DXC_sd                       =   1.1216447457560E+05
(PID.TID 0000.0001) %MON DXF_max                      =   4.4443898815675E+05
(PID.TID 0000.0001) %MON DXF_min                      =   9.2460385861875E+04
(PID.TID 0000.0001) %MON DXF_mean                     =   3.1372497618153E+05
(PID.TID 0000.0001) %MON DXF_sd                       =   1.1216447457560E+05
(PID.TID 0000.0001) %MON DXG_max                      =   4.4470989340816E+05
(PID.TID 0000.0001) %MON DXG_min                      =   7.7223062580781E+04
(PID.TID 0000.0001) %MON DXG_mean                     =   3.1353386340260E+05
(PID.TID 0000.0001) %MON DXG_sd                       =   1.1256651772502E+05
(PID.TID 0000.0001) %MON DXV_max                      =   4.4470989340816E+05
(PID.TID 0000.0001) %MON DXV_min                      =   7.7223062580781E+04
(PID.TID 0000.0001) %MON DXV_mean                     =   3.1353386340260E+05
(PID.TID 0000.0001) %MON DXV_sd                       =   1.1256651772502E+05
(PID.TID 0000.0001) %MON YC_max                       =   7.8000000000000E+01
(PID.TID 0000.0001) %MON YC_min                       =  -7.8000000000000E+01
(PID.TID 0000.0001) %MON YC_mean                      =   0.0000000000000E+00
(PID.TID 0000.0001) %MON YC_sd                        =   4.6173585522461E+01
(PID.TID 0000.0001) %MON YG_max                       =   7.6000000000000E+01
(PID.TID 0000.0001) %MON YG_min                       =  -8.0000000000000E+01
(PID.TID 0000.0001) %MON YG_mean                      =  -2.0000000000000E+00
(PID.TID 0000.0001) %MON YG_sd                        =   4.6173585522461E+01
(PID.TID 0000.0001) %MON DYC_max                      =   4.4470989340816E+05
(PID.TID 0000.0001) %MON DYC_min                      =   4.4470989340816E+05
(PID.TID 0000.0001) %MON DYC_mean                     =   4.4470989340814E+05
(PID.TID 0000.0001) %MON DYC_sd                       =   1.9848812371492E-08
(PID.TID 0000.0001) %MON DYF_max                      =   4.4470989340816E+05
(PID.TID 0000.0001) %MON DYF_min                      =   4.4470989340816E+05
(PID.TID 0000.0001) %MON DYF_mean                     =   4.4470989340814E+05
(PID.TID 0000.0001) %MON DYF_sd                       =   1.9848812371492E-08
(PID.TID 0000.0001) %MON DYG_max                      =   4.4470989340816E+05
(PID.TID 0000.0001) %MON DYG_min                      =   4.4470989340816E+05
(PID.TID 0000.0001) %MON DYG_mean                     =   4.4470989340814E+05
(PID.TID 0000.0001) %MON DYG_sd                       =   1.9848812371492E-08
(PID.TID 0000.0001) %MON DYU_max                      =   4.4470989340816E+05
(PID.TID 0000.0001) %MON DYU_min                      =   4.4470989340816E+05
(PID.TID 0000.0001) %MON DYU_mean                     =   4.4470989340814E+05
(PID.TID 0000.0001) %MON DYU_sd                       =   1.9848812371492E-08
(PID.TID 0000.0001) %MON RA_max                       =   1.9760627980089E+11
(PID.TID 0000.0001) %MON RA_min                       =   4.1109698667290E+10
(PID.TID 0000.0001) %MON RA_mean                      =   1.3948826965197E+11
(PID.TID 0000.0001) %MON RA_sd                        =   4.9870522472902E+10
(PID.TID 0000.0001) %MON RAW_max                      =   1.9760627980089E+11
(PID.TID 0000.0001) %MON RAW_min                      =   4.1109698667290E+10
(PID.TID 0000.0001) %MON RAW_mean                     =   1.3948826965197E+11
(PID.TID 0000.0001) %MON RAW_sd                       =   4.9870522472902E+10
(PID.TID 0000.0001) %MON RAS_max                      =   1.9772672958215E+11
(PID.TID 0000.0001) %MON RAS_min                      =   3.4334886267983E+10
(PID.TID 0000.0001) %MON RAS_mean                     =   1.3940329716694E+11
(PID.TID 0000.0001) %MON RAS_sd                       =   5.0049278732354E+10
(PID.TID 0000.0001) %MON RAZ_max                      =   1.9772672958215E+11
(PID.TID 0000.0001) %MON RAZ_min                      =   3.4334886267983E+10
(PID.TID 0000.0001) %MON RAZ_mean                     =   1.3940329716694E+11
(PID.TID 0000.0001) %MON RAZ_sd                       =   5.0049278732354E+10
(PID.TID 0000.0001) %MON AngleCS_max                  =   1.0000000000000E+00
(PID.TID 0000.0001) %MON AngleCS_min                  =   1.0000000000000E+00
(PID.TID 0000.0001) %MON AngleCS_mean                 =   1.0000000000000E+00
(PID.TID 0000.0001) %MON AngleCS_sd                   =   0.0000000000000E+00
(PID.TID 0000.0001) %MON AngleSN_max                  =   0.0000000000000E+00
(PID.TID 0000.0001) %MON AngleSN_min                  =   0.0000000000000E+00
(PID.TID 0000.0001) %MON AngleSN_mean                 =   0.0000000000000E+00
(PID.TID 0000.0001) %MON AngleSN_sd                   =   0.0000000000000E+00
(PID.TID 0000.0001)  MDS_READ_FIELD: opening global file: bathymetry.bin
(PID.TID 0000.0001) // =======================================================
(PID.TID 0000.0001) // Field Model R_low (ini_masks_etc) at iteration          1
(PID.TID 0000.0001) // CMIN =         -5.200000000000000E+03
(PID.TID 0000.0001) // CMAX =         -1.200000000000000E+02
(PID.TID 0000.0001) // CINT =          1.881481481481482E+02
(PID.TID 0000.0001) // SYMBOLS (CMIN->CMAX): -abcdefghijklmnopqrstuvwxyz+
(PID.TID 0000.0001) //                  0.0: .
(PID.TID 0000.0001) // RANGE I (Lo:Hi:Step):(  -1:  92:   1)
(PID.TID 0000.0001) // RANGE J (Lo:Hi:Step):(  42:  -1:  -1)
(PID.TID 0000.0001) // RANGE K (Lo:Hi:Step):(   1:   1:   1)
(PID.TID 0000.0001) // =======================================================
(PID.TID 0000.0001) K =   1
(PID.TID 0000.0001) //                I=8       I=18      I=28      I=38      I=48      I=58      I=68      I=78      I=88
(PID.TID 0000.0001) // |--J--|101234567|901234567|901234567|901234567|901234567|901234567|901234567|901234567|901234567|9012
(PID.TID 0000.0001) //     42 ............................................zyxxmgfeeefefgimnpwwwy..+zyy.....yyyyoiiihhz+.....
(PID.TID 0000.0001) //     41 ..............................................................................................
(PID.TID 0000.0001) //     40 qlloqz+.++++zzz++++++..................................................................+++qllo
(PID.TID 0000.0001) //     39 slloorzzzzzzzzz+...++.....................................................yxxz........+zvusllo
(PID.TID 0000.0001) //     38 mqpporzzzzzz+++...........................................................zxxy+......zyyvsmqpp
(PID.TID 0000.0001) //     37 mmmuz..................................................................++...zy+...yttyy.+smmmu
(PID.TID 0000.0001) //     36 utt+.........................................mm++....................+++++++znmm.yoowssvuyutt+
(PID.TID 0000.0001) //     35 ++++.................................+zzz..rrmmkk+...+gghn...........+++....+nmiijlsoopuww++++
(PID.TID 0000.0001) //     34 .....................................+vvy.ggqyxv+y.ccdffhim..................+nihhikkihhm+....
(PID.TID 0000.0001) //     33 +.....................................uuz---h------aaabdefin+.................zqvddflifffw+...
(PID.TID 0000.0001) //     32 +.....................................+t----h---------acdfgnn................+++gdffkofffm+...
(PID.TID 0000.0001) //     31 ......................................-----ad--------abddegil..............qbaafccdhqqgddm....
(PID.TID 0000.0001) //     30 .....................................f----b--b------------abd............zfbb--fbcdosjfddi....
(PID.TID 0000.0001) //     29 ...................................tu----e---fjg----------abdf...........eaac--abfmijaadgi....
(PID.TID 0000.0001) //     28 .................................+xfl-------------------bdedefi.........qbaa---aemfbbaaejz....
(PID.TID 0000.0001) //     27 ................xx..............+wfgfpf--------eallc---bbbccefgi...+++x.qb-----akfa---ah......
(PID.TID 0000.0001) //     26 ................xnn...........+vd---dna------a--aicfna---aabdfghku.++xssuy-----bgca---ci......
(PID.TID 0000.0001) //     25 ................iiik...oo+...+ivd---doaa-bc--ilglf--aa---aabcghhkll...ssum+xaaacjbaabdjk......
(PID.TID 0000.0001) //     24 ..............xnheeft.kkk+...uii.aagdm----aa-----a-------bbbcdefjljjju.zummwwbbchba--abi......
(PID.TID 0000.0001) //     23 ..............xgheefp.iikw...uuw..fihi----fed-----eaaa--bbbbcdfflkjiiiq....zykccefa--abd......
(PID.TID 0000.0001) //     22 uss...........bbelffslffkk...zz.wqkeeqoheccdfa-----egabaabcdddegghliiiqq......xeeehheehccquss.
(PID.TID 0000.0001) //     21 bbeir........nbbcdjhqdddiiz.....wqfeelgghmedea-----bibbcddddddefghklnqoo........ieeflhgcccbbei
(PID.TID 0000.0001) //     20 bbder.......ldcccdgkccccidd......z.vkkktqqhegg----aaacddddddddefghkiiijl.........nhfa--gfcbbde
(PID.TID 0000.0001) //     19 cdaaf.......kddosggpaaaibbccx...+z+.....r+nlec---agaaabcddccddefikfgffff...........d---cjhcdaa
(PID.TID 0000.0001) //     18 d---d.......kglggvliaaaibbcaaeaiv++...qqzolhecccfdgkaabcdfccdeeikgfgffdd+..........d---djhd---
(PID.TID 0000.0001) //     17 c---c.......l.feewlfaaaoaa----aiv.....qqnllslmlofcdbaacceffffhhligfigeddj.........hd---ckhc---
(PID.TID 0000.0001) //     16 ba--c......tn.ddgnlfdaaqa-----lv.......vnllvllnwv--accivomfffhilhgfffeddjf........re--aeigba--
(PID.TID 0000.0001) //     15 b--dpz....+ll.ccdfhmdddlc----av.........otsxoomv---abccddfihgijkhgfffeejfff......+fd---ckfb--d
(PID.TID 0000.0001) //     14 c--mcl....weeqbaafilkfend--eagy.........hhstofft----aacdheefijkmjhhjijiffff.....zlfdaaadlfc--m
(PID.TID 0000.0001) //     13 cclbbg....nccobaaiddgkffqrqeaal.........eeutqfft------aaceeffhijlkjhhigfffq....+jgfodccflhcclb
(PID.TID 0000.0001) //     12 hgaaacw+iiicclemhdddfliigfdcaabfaaaz....ccsurqpc--------abcifffikiiihhggff.....kbbbdfffglhhgaa
(PID.TID 0000.0001) //     11 gcaaacbbifccennhbbdefnihgfdccaaaa----..dcccnt.ncab-------aabcdfilhggjiggff....l---abcefjlkgcaa
(PID.TID 0000.0001) //     10 fcaaccbdaacfrllfbbdegkmmljhfdddba----d.dcccfx.nyrebaba----abcdgilhfeegijgi..+w--aa-abcfilkfcaa
(PID.TID 0000.0001) //      9 ffcdcccaaaoqsolfdeehikihhlllgfedcccccdmdcccf.vyfaaaaaaaa--abdehmjhfeeefglv.++w-----abcdfklffcd
(PID.TID 0000.0001) //      8 iffjklcaafddffeeccvznkfffhhhlkjifgjkkfeeddfsyvcaaaaaaccdcccdfgjligedbbceg+.++xffn--cfddefliffj
(PID.TID 0000.0001) //      7 mqnnbbkkf--bmbaabbgtykfddeffeeddccdfhlffeelfbaaaaaacddeghgjgjlligeddaaabedfiiiiiisvkfkecchmqnn
(PID.TID 0000.0001) //      6 ca-------------aabcelttdddedddddccccdfkkiiffbaaaabcdgimmkmefecaaabbbaaabbdfiiiiispmmregifcca--
(PID.TID 0000.0001) //      5 -------a-------aaccehhhiddeddddddcccdfiikomodddefffmlmigedccaaaaaaaababbbdfiijsqgeccccbaa-----
(PID.TID 0000.0001) //      4 -ahebaabbbbbeihffgijiiiijpywnnpokkomkiiijmmmolkommmgffeeedccaaaaaabbcccefhmz..yjgeccccbaa--ahe
(PID.TID 0000.0001) //      3 ffhhrpjiiwyy............................yxotmjjjjgfeeeeeeddeffffheddeghjkyy..yqjgeddccdbbgffhh
(PID.TID 0000.0001) //      2 ............................................zyxxmgfeeefefgimnpwwwy..+zyy.....yyyyoiiihhz+.....
(PID.TID 0000.0001) //      1 ..............................................................................................
(PID.TID 0000.0001) //      0 qlloqz+.++++zzz++++++..................................................................+++qllo
(PID.TID 0000.0001) //     -1 slloorzzzzzzzzz+...++.....................................................yxxz........+zvusllo
(PID.TID 0000.0001) // =======================================================
(PID.TID 0000.0001) // END OF FIELD                                          =
(PID.TID 0000.0001) // =======================================================
(PID.TID 0000.0001) 
(PID.TID 0000.0001) // =======================================================
(PID.TID 0000.0001) // Field Model Ro_surf (ini_masks_etc) at iteration          1
(PID.TID 0000.0001) // CMIN =          1.000000000000000E+32
(PID.TID 0000.0001) // CMAX =         -1.000000000000000E+32
(PID.TID 0000.0001) // CINT =          0.000000000000000E+00
(PID.TID 0000.0001) // SYMBOLS (CMIN->CMAX): -abcdefghijklmnopqrstuvwxyz+
(PID.TID 0000.0001) //                  0.0: .
(PID.TID 0000.0001) // RANGE I (Lo:Hi:Step):(  -1:  92:   1)
(PID.TID 0000.0001) // RANGE J (Lo:Hi:Step):(  42:  -1:  -1)
(PID.TID 0000.0001) // RANGE K (Lo:Hi:Step):(   1:   1:   1)
(PID.TID 0000.0001) // =======================================================
(PID.TID 0000.0001) // =======================================================
(PID.TID 0000.0001) // END OF FIELD                                          =
(PID.TID 0000.0001) // =======================================================
(PID.TID 0000.0001) 
(PID.TID 0000.0001) // =======================================================
(PID.TID 0000.0001) // Field hFacC at iteration          1
(PID.TID 0000.0001) // CMIN =          1.000000000000000E+00
(PID.TID 0000.0001) // CMAX =          1.000000000000000E+00
(PID.TID 0000.0001) // CINT =          0.000000000000000E+00
(PID.TID 0000.0001) // SYMBOLS (CMIN->CMAX): -abcdefghijklmnopqrstuvwxyz+
(PID.TID 0000.0001) //                  0.0: .
(PID.TID 0000.0001) // RANGE I (Lo:Hi:Step):(  -1:  92:   1)
(PID.TID 0000.0001) // RANGE J (Lo:Hi:Step):(  42:  -1:  -1)
(PID.TID 0000.0001) // RANGE K (Lo:Hi:Step):(   1:   1:   1)
(PID.TID 0000.0001) // =======================================================
(PID.TID 0000.0001) // =======================================================
(PID.TID 0000.0001) // END OF FIELD                                          =
(PID.TID 0000.0001) // =======================================================
(PID.TID 0000.0001) 
(PID.TID 0000.0001) // =======================================================
(PID.TID 0000.0001) // Field hFacW at iteration          1
(PID.TID 0000.0001) // CMIN =          1.000000000000000E+00
(PID.TID 0000.0001) // CMAX =          1.000000000000000E+00
(PID.TID 0000.0001) // CINT =          0.000000000000000E+00
(PID.TID 0000.0001) // SYMBOLS (CMIN->CMAX): -abcdefghijklmnopqrstuvwxyz+
(PID.TID 0000.0001) //                  0.0: .
(PID.TID 0000.0001) // RANGE I (Lo:Hi:Step):(  -1:  92:   1)
(PID.TID 0000.0001) // RANGE J (Lo:Hi:Step):(  42:  -1:  -1)
(PID.TID 0000.0001) // RANGE K (Lo:Hi:Step):(   1:   1:   1)
(PID.TID 0000.0001) // =======================================================
(PID.TID 0000.0001) // =======================================================
(PID.TID 0000.0001) // END OF FIELD                                          =
(PID.TID 0000.0001) // =======================================================
(PID.TID 0000.0001) 
(PID.TID 0000.0001) // =======================================================
(PID.TID 0000.0001) // Field hFacS at iteration          1
(PID.TID 0000.0001) // CMIN =          1.000000000000000E+00
(PID.TID 0000.0001) // CMAX =          1.000000000000000E+00
(PID.TID 0000.0001) // CINT =          0.000000000000000E+00
(PID.TID 0000.0001) // SYMBOLS (CMIN->CMAX): -abcdefghijklmnopqrstuvwxyz+
(PID.TID 0000.0001) //                  0.0: .
(PID.TID 0000.0001) // RANGE I (Lo:Hi:Step):(  -1:  92:   1)
(PID.TID 0000.0001) // RANGE J (Lo:Hi:Step):(  42:  -1:  -1)
(PID.TID 0000.0001) // RANGE K (Lo:Hi:Step):(   1:   1:   1)
(PID.TID 0000.0001) // =======================================================
(PID.TID 0000.0001) // =======================================================
(PID.TID 0000.0001) // END OF FIELD                                          =
(PID.TID 0000.0001) // =======================================================
(PID.TID 0000.0001) 
(PID.TID 0000.0001) 
(PID.TID 0000.0001) // ===================================
(PID.TID 0000.0001) // GAD parameters :
(PID.TID 0000.0001) // ===================================
(PID.TID 0000.0001) tempAdvScheme =   /* Temp. Horiz.Advection scheme selector */
(PID.TID 0000.0001)                       2
(PID.TID 0000.0001)     ;
(PID.TID 0000.0001) tempVertAdvScheme =   /* Temp. Vert. Advection scheme selector */
(PID.TID 0000.0001)                       2
(PID.TID 0000.0001)     ;
(PID.TID 0000.0001) tempMultiDimAdvec =   /* use Muti-Dim Advec method for Temp */
(PID.TID 0000.0001)                   F
(PID.TID 0000.0001)     ;
(PID.TID 0000.0001) tempSOM_Advection = /* use 2nd Order Moment Advection for Temp */
(PID.TID 0000.0001)                   F
(PID.TID 0000.0001)     ;
(PID.TID 0000.0001) AdamsBashforthGt = /* apply Adams-Bashforth extrapolation on Gt */
(PID.TID 0000.0001)                   T
(PID.TID 0000.0001)     ;
(PID.TID 0000.0001) AdamsBashforth_T = /* apply Adams-Bashforth extrapolation on Temp */
(PID.TID 0000.0001)                   F
(PID.TID 0000.0001)     ;
(PID.TID 0000.0001) saltAdvScheme =   /* Salt. Horiz.advection scheme selector */
(PID.TID 0000.0001)                       2
(PID.TID 0000.0001)     ;
(PID.TID 0000.0001) saltVertAdvScheme =   /* Salt. Vert. Advection scheme selector */
(PID.TID 0000.0001)                       2
(PID.TID 0000.0001)     ;
(PID.TID 0000.0001) saltMultiDimAdvec =   /* use Muti-Dim Advec method for Salt */
(PID.TID 0000.0001)                   F
(PID.TID 0000.0001)     ;
(PID.TID 0000.0001) saltSOM_Advection = /* use 2nd Order Moment Advection for Salt */
(PID.TID 0000.0001)                   F
(PID.TID 0000.0001)     ;
(PID.TID 0000.0001) AdamsBashforthGs = /* apply Adams-Bashforth extrapolation on Gs */
(PID.TID 0000.0001)                   T
(PID.TID 0000.0001)     ;
(PID.TID 0000.0001) AdamsBashforth_S = /* apply Adams-Bashforth extrapolation on Salt */
(PID.TID 0000.0001)                   F
(PID.TID 0000.0001)     ;
(PID.TID 0000.0001) // ===================================
(PID.TID 0000.0001) ctrl-wet 1:    nvarlength =         2315
(PID.TID 0000.0001) ctrl-wet 2: surface wet C =         2315
(PID.TID 0000.0001) ctrl-wet 3: surface wet W =         2206
(PID.TID 0000.0001) ctrl-wet 4: surface wet S =         2149
(PID.TID 0000.0001) ctrl-wet 4a:surface wet V =            0
(PID.TID 0000.0001) ctrl-wet 5: 3D wet points =        29309
(PID.TID 0000.0001) ctrl-wet 6: no recs for i =     1           0
(PID.TID 0000.0001) ctrl-wet 6: no recs for i =     2           0
(PID.TID 0000.0001) ctrl-wet 6: no recs for i =     3           0
(PID.TID 0000.0001) ctrl-wet 6: no recs for i =     4           0
(PID.TID 0000.0001) ctrl-wet 6: no recs for i =     5           0
(PID.TID 0000.0001) ctrl-wet 6: no recs for i =     6           0
(PID.TID 0000.0001) ctrl-wet 6: no recs for i =     7           0
(PID.TID 0000.0001) ctrl-wet 6: no recs for i =     8           0
(PID.TID 0000.0001) ctrl-wet 6: no recs for i =     9           0
(PID.TID 0000.0001) ctrl-wet 6: no recs for i =    10           0
(PID.TID 0000.0001) ctrl-wet 6: no recs for i =    11           0
(PID.TID 0000.0001) ctrl-wet 6: no recs for i =    12           0
(PID.TID 0000.0001) ctrl-wet 6: no recs for i =    13           0
(PID.TID 0000.0001) ctrl-wet 6: no recs for i =    14           0
(PID.TID 0000.0001) ctrl-wet 6: no recs for i =    15           0
(PID.TID 0000.0001) ctrl-wet 6: no recs for i =    16           0
(PID.TID 0000.0001) ctrl-wet 6: no recs for i =    17           0
(PID.TID 0000.0001) ctrl-wet 6: no recs for i =    18           0
(PID.TID 0000.0001) ctrl-wet 6: no recs for i =    19           0
(PID.TID 0000.0001) ctrl-wet 6: no recs for i =    20           0
(PID.TID 0000.0001) ctrl-wet 6: no recs for i =    21           0
(PID.TID 0000.0001) ctrl-wet 6: no recs for i =    22           0
(PID.TID 0000.0001) ctrl-wet 6: no recs for i =    23           0
(PID.TID 0000.0001) ctrl-wet 6: no recs for i =    24           1
(PID.TID 0000.0001) ctrl-wet 6: no recs for i =    25           0
(PID.TID 0000.0001) ctrl-wet 6: no recs for i =    26           0
(PID.TID 0000.0001) ctrl-wet 6: no recs for i =    27           0
(PID.TID 0000.0001) ctrl-wet 6: no recs for i =    28           0
(PID.TID 0000.0001) ctrl-wet 6: no recs for i =    29           0
(PID.TID 0000.0001) ctrl-wet 6: no recs for i =    30           0
(PID.TID 0000.0001) ctrl-wet 6: no recs for i =    31           0
(PID.TID 0000.0001) ctrl-wet 6: no recs for i =    32           0
(PID.TID 0000.0001) ctrl-wet 6: no recs for i =    33           0
(PID.TID 0000.0001) ctrl-wet 6: no recs for i =    34           0
(PID.TID 0000.0001) ctrl-wet 6: no recs for i =    35           0
(PID.TID 0000.0001) ctrl-wet 6: no recs for i =    36           0
(PID.TID 0000.0001) ctrl-wet 6: no recs for i =    37           0
(PID.TID 0000.0001) ctrl-wet 6: no recs for i =    38           0
(PID.TID 0000.0001) ctrl-wet 6: no recs for i =    39           0
(PID.TID 0000.0001) ctrl-wet 6: no recs for i =    40           0
(PID.TID 0000.0001) ctrl-wet 6: no recs for i =    41           0
(PID.TID 0000.0001) ctrl-wet 6: no recs for i =    42           0
(PID.TID 0000.0001) ctrl-wet 6: no recs for i =    43           0
(PID.TID 0000.0001) ctrl-wet 6: no recs for i =    44           0
(PID.TID 0000.0001) ctrl-wet 6: no recs for i =    45           0
(PID.TID 0000.0001) ctrl-wet 6: no recs for i =    46           0
(PID.TID 0000.0001) ctrl-wet 6: no recs for i =    47           0
(PID.TID 0000.0001) ctrl-wet 6: no recs for i =    48           0
(PID.TID 0000.0001) ctrl-wet 6: no recs for i =    49           0
(PID.TID 0000.0001) ctrl-wet 6: no recs for i =    50           0
(PID.TID 0000.0001) ctrl-wet 6: no recs for i =    51           0
(PID.TID 0000.0001) ctrl-wet 6: no recs for i =    52           0
(PID.TID 0000.0001) ctrl-wet 6: no recs for i =    53           0
(PID.TID 0000.0001) ctrl-wet 6: no recs for i =    54           0
(PID.TID 0000.0001) ctrl-wet 6: no recs for i =    55           0
(PID.TID 0000.0001) ctrl-wet 6: no recs for i =    56           0
(PID.TID 0000.0001) ctrl-wet 6: no recs for i =    57           0
(PID.TID 0000.0001) ctrl-wet 6: no recs for i =    58           0
(PID.TID 0000.0001) ctrl-wet 6: no recs for i =    59           0
(PID.TID 0000.0001) ctrl-wet 6: no recs for i =    60           0
(PID.TID 0000.0001) ctrl-wet 7: flux         58618
(PID.TID 0000.0001) ctrl-wet 8: atmos        58618
(PID.TID 0000.0001) ctrl-wet -------------------------------------------------
(PID.TID 0000.0001) ctrl-wet 13: global nvarlength for Nr =   15        2315
(PID.TID 0000.0001) ctrl-wet -------------------------------------------------
(PID.TID 0000.0001) ctrl-wet 14: global nWet C/S/W/V k=    1        2315        2149        2206           0
(PID.TID 0000.0001) ctrl-wet 14: global nWet C/S/W/V k=    2        2315        2149        2206           0
(PID.TID 0000.0001) ctrl-wet 14: global nWet C/S/W/V k=    3        2254        2102        2146           0
(PID.TID 0000.0001) ctrl-wet 14: global nWet C/S/W/V k=    4        2215        2058        2104           0
(PID.TID 0000.0001) ctrl-wet 14: global nWet C/S/W/V k=    5        2178        2027        2070           0
(PID.TID 0000.0001) ctrl-wet 14: global nWet C/S/W/V k=    6        2142        1987        2029           0
(PID.TID 0000.0001) ctrl-wet 14: global nWet C/S/W/V k=    7        2114        1959        2004           0
(PID.TID 0000.0001) ctrl-wet 14: global nWet C/S/W/V k=    8        2076        1918        1959           0
(PID.TID 0000.0001) ctrl-wet 14: global nWet C/S/W/V k=    9        2048        1887        1925           0
(PID.TID 0000.0001) ctrl-wet 14: global nWet C/S/W/V k=   10        1999        1831        1869           0
(PID.TID 0000.0001) ctrl-wet 14: global nWet C/S/W/V k=   11        1948        1771        1808           0
(PID.TID 0000.0001) ctrl-wet 14: global nWet C/S/W/V k=   12        1850        1653        1705           0
(PID.TID 0000.0001) ctrl-wet 14: global nWet C/S/W/V k=   13        1655        1404        1458           0
(PID.TID 0000.0001) ctrl-wet 14: global nWet C/S/W/V k=   14        1372        1118        1164           0
(PID.TID 0000.0001) ctrl-wet 14: global nWet C/S/W/V k=   15         828         623         671           0
(PID.TID 0000.0001) ctrl-wet -------------------------------------------------
(PID.TID 0000.0001) ctrl-wet -------------------------------------------------
(PID.TID 0000.0001) ctrl-wet -------------------------------------------------
(PID.TID 0000.0001) ctrl_init: no. of control variables:            1
(PID.TID 0000.0001) ctrl_init: control vector length:            2315
(PID.TID 0000.0001) GAD_CHECK: #define ALLOW_GENERIC_ADVDIFF
(PID.TID 0000.0001) GMREDI_CHECK: #define GMREDI
(PID.TID 0000.0001) GM_AdvForm =  /* if FALSE => use SkewFlux Form */
(PID.TID 0000.0001)                   F
(PID.TID 0000.0001)     ;
(PID.TID 0000.0001) GM_AdvSeparate = /* Calc Bolus & Euler Adv. separately */
(PID.TID 0000.0001)                   F
(PID.TID 0000.0001)     ;
(PID.TID 0000.0001) GM_ExtraDiag =  /* Tensor Extra Diag (line 1&2) non 0 */
(PID.TID 0000.0001)                   F
(PID.TID 0000.0001)     ;
(PID.TID 0000.0001) GM_isopycK =   /* Background Isopyc. Diffusivity ( m^2/s ) */
(PID.TID 0000.0001)                 1.000000000000000E+03
(PID.TID 0000.0001)     ;
(PID.TID 0000.0001)  GM_skewflx*K =   /* Background GM_SkewFlx Diffusivity ( m^2/s ) */
(PID.TID 0000.0001)                 1.000000000000000E+03
(PID.TID 0000.0001)     ;
(PID.TID 0000.0001)  GM_advec*K =   /* Backg. GM-Advec(=Bolus) Diffusivity ( m^2/s ) */
(PID.TID 0000.0001)                 0.000000000000000E+00
(PID.TID 0000.0001)     ;
(PID.TID 0000.0001)  GM_Visbeck_alpha =   /* Visbeck alpha coeff. ( ) */
(PID.TID 0000.0001)                 0.000000000000000E+00
(PID.TID 0000.0001)     ;
(PID.TID 0000.0001)  Tapering/Cliping : dm95
(PID.TID 0000.0001)  GM_Small_Number =  /* epsilon used in slope calc */
(PID.TID 0000.0001)                 9.999999999999999E-21
(PID.TID 0000.0001)     ;
(PID.TID 0000.0001)  GM_slopeSqCutoff =  /* Slope^2 cut-off value */
(PID.TID 0000.0001)                 1.000000000000000E+08
(PID.TID 0000.0001)     ;
(PID.TID 0000.0001) CTRL_CHECK: ctrl package
(PID.TID 0000.0001) COST_CHECK: cost package
(PID.TID 0000.0001) CTRL_CHECK: ctrl package
(PID.TID 0000.0001) %MON fCori_max                    =   1.4265546244797E-04
(PID.TID 0000.0001) %MON fCori_min                    =  -1.4265546244797E-04
(PID.TID 0000.0001) %MON fCori_mean                   =  -1.2347858075529E-21
(PID.TID 0000.0001) %MON fCori_sd                     =   9.6599226301547E-05
(PID.TID 0000.0001) %MON fCoriG_max                   =   1.4151032568025E-04
(PID.TID 0000.0001) %MON fCoriG_min                   =  -1.4362679550910E-04
(PID.TID 0000.0001) %MON fCoriG_mean                  =  -3.5906698877274E-06
(PID.TID 0000.0001) %MON fCoriG_sd                    =   9.6548915696244E-05
(PID.TID 0000.0001) %MON fCoriCos_max                 =   1.4575362704741E-04
(PID.TID 0000.0001) %MON fCoriCos_min                 =   3.0322354601388E-05
(PID.TID 0000.0001) %MON fCoriCos_mean                =   1.0288600773632E-04
(PID.TID 0000.0001) %MON fCoriCos_sd                  =   3.6784304327266E-05
(PID.TID 0000.0001) INI_CG2D: CG2D normalisation factor =  6.5682677425711703E-05
(PID.TID 0000.0001) 
(PID.TID 0000.0001) CONFIG_CHECK: OK
(PID.TID 0000.0001) // =======================================================
(PID.TID 0000.0001) // Model configuration
(PID.TID 0000.0001) // =======================================================
(PID.TID 0000.0001) //
(PID.TID 0000.0001) // "Physical" paramters ( PARM01 in namelist )
(PID.TID 0000.0001) //
(PID.TID 0000.0001) buoyancyRelation = /* Type of relation to get Buoyancy */
(PID.TID 0000.0001)               'OCEANIC'
(PID.TID 0000.0001)     ;
(PID.TID 0000.0001) fluidIsAir  =  /* fluid major constituent is Air */
(PID.TID 0000.0001)                   F
(PID.TID 0000.0001)     ;
(PID.TID 0000.0001) fluidIsWater=  /* fluid major constituent is Water */
(PID.TID 0000.0001)                   T
(PID.TID 0000.0001)     ;
(PID.TID 0000.0001) usingPCoords =  /* use p (or p*) vertical coordinate */
(PID.TID 0000.0001)                   F
(PID.TID 0000.0001)     ;
(PID.TID 0000.0001) usingZCoords =  /* use z (or z*) vertical coordinate */
(PID.TID 0000.0001)                   T
(PID.TID 0000.0001)     ;
(PID.TID 0000.0001) tRef =   /* Reference temperature profile ( oC or K ) */
(PID.TID 0000.0001)    15 @  2.000000000000000E+01              /* K =  1: 15 */
(PID.TID 0000.0001)     ;
(PID.TID 0000.0001) sRef =   /* Reference salinity profile ( psu ) */
(PID.TID 0000.0001)    15 @  3.500000000000000E+01              /* K =  1: 15 */
(PID.TID 0000.0001)     ;
(PID.TID 0000.0001) viscAh =   /* Lateral eddy viscosity ( m^2/s ) */
(PID.TID 0000.0001)                 5.000000000000000E+05
(PID.TID 0000.0001)     ;
(PID.TID 0000.0001) viscAhMax =   /* Maximum lateral eddy viscosity ( m^2/s ) */
(PID.TID 0000.0001)                 1.000000000000000E+21
(PID.TID 0000.0001)     ;
(PID.TID 0000.0001) viscAhGrid =   /* Grid dependent lateral eddy viscosity ( non-dim. ) */
(PID.TID 0000.0001)                 0.000000000000000E+00
(PID.TID 0000.0001)     ;
(PID.TID 0000.0001) useFullLeith =   /* Use Full Form of Leith Viscosity on/off flag*/
(PID.TID 0000.0001)                   F
(PID.TID 0000.0001)     ;
(PID.TID 0000.0001) useStrainTensionVisc =   /* Use StrainTension Form of Viscous Operator on/off flag*/
(PID.TID 0000.0001)                   F
(PID.TID 0000.0001)     ;
(PID.TID 0000.0001) useAreaViscLength =   /* Use area for visc length instead of geom. mean*/
(PID.TID 0000.0001)                   F
(PID.TID 0000.0001)     ;
(PID.TID 0000.0001) viscC2leith = /* Leith harmonic visc. factor (on grad(vort),non-dim.) */
(PID.TID 0000.0001)                 0.000000000000000E+00
(PID.TID 0000.0001)     ;
(PID.TID 0000.0001) viscC2leithD = /* Leith harmonic viscosity factor (on grad(div),non-dim.) */
(PID.TID 0000.0001)                 0.000000000000000E+00
(PID.TID 0000.0001)     ;
(PID.TID 0000.0001) viscC2smag =   /* Smagorinsky harmonic viscosity factor (non-dim.) */
(PID.TID 0000.0001)                 0.000000000000000E+00
(PID.TID 0000.0001)     ;
(PID.TID 0000.0001) viscA4 =   /* Lateral biharmonic viscosity ( m^4/s ) */
(PID.TID 0000.0001)                 0.000000000000000E+00
(PID.TID 0000.0001)     ;
(PID.TID 0000.0001) viscA4Max =   /* Maximum biharmonic viscosity ( m^2/s ) */
(PID.TID 0000.0001)                 1.000000000000000E+21
(PID.TID 0000.0001)     ;
(PID.TID 0000.0001) viscA4Grid =   /* Grid dependent biharmonic viscosity ( non-dim. ) */
(PID.TID 0000.0001)                 0.000000000000000E+00
(PID.TID 0000.0001)     ;
(PID.TID 0000.0001) viscC4leith = /* Leith biharm viscosity factor (on grad(vort), non-dim.) */
(PID.TID 0000.0001)                 0.000000000000000E+00
(PID.TID 0000.0001)     ;
(PID.TID 0000.0001) viscC4leithD = /* Leith biharm viscosity factor (on grad(div), non-dim.) */
(PID.TID 0000.0001)                 0.000000000000000E+00
(PID.TID 0000.0001)     ;
(PID.TID 0000.0001) viscC4Smag = /* Smagorinsky biharm viscosity factor (non-dim) */
(PID.TID 0000.0001)                 0.000000000000000E+00
(PID.TID 0000.0001)     ;
(PID.TID 0000.0001) no_slip_sides =  /* Viscous BCs: No-slip sides */
(PID.TID 0000.0001)                   T
(PID.TID 0000.0001)     ;
(PID.TID 0000.0001) sideDragFactor = /* side-drag scaling factor (non-dim) */
(PID.TID 0000.0001)                 2.000000000000000E+00
(PID.TID 0000.0001)     ;
(PID.TID 0000.0001) viscAr =   /* Vertical eddy viscosity ( units of r^2/s ) */
(PID.TID 0000.0001)                 1.000000000000000E-03
(PID.TID 0000.0001)     ;
(PID.TID 0000.0001) no_slip_bottom =  /* Viscous BCs: No-slip bottom */
(PID.TID 0000.0001)                   T
(PID.TID 0000.0001)     ;
(PID.TID 0000.0001) bottomDragLinear = /* linear bottom-drag coefficient ( 1/s ) */
(PID.TID 0000.0001)                 0.000000000000000E+00
(PID.TID 0000.0001)     ;
(PID.TID 0000.0001) bottomDragQuadratic = /* quadratic bottom-drag coeff. ( 1/m ) */
(PID.TID 0000.0001)                 0.000000000000000E+00
(PID.TID 0000.0001)     ;
(PID.TID 0000.0001) diffKhT =   /* Laplacian diffusion of heat laterally ( m^2/s ) */
(PID.TID 0000.0001)                 0.000000000000000E+00
(PID.TID 0000.0001)     ;
(PID.TID 0000.0001) diffK4T =   /* Bihaarmonic diffusion of heat laterally ( m^4/s ) */
(PID.TID 0000.0001)                 0.000000000000000E+00
(PID.TID 0000.0001)     ;
(PID.TID 0000.0001) diffKhS =   /* Laplacian diffusion of salt laterally ( m^2/s ) */
(PID.TID 0000.0001)                 0.000000000000000E+00
(PID.TID 0000.0001)     ;
(PID.TID 0000.0001) diffK4S =   /* Bihaarmonic diffusion of salt laterally ( m^4/s ) */
(PID.TID 0000.0001)                 0.000000000000000E+00
(PID.TID 0000.0001)     ;
(PID.TID 0000.0001) diffKrNrT = /* vertical profile of vertical diffusion of Temp ( m^2/s )*/
(PID.TID 0000.0001)    15 @  3.000000000000000E-05              /* K =  1: 15 */
(PID.TID 0000.0001)     ;
(PID.TID 0000.0001) diffKrNrS = /* vertical profile of vertical diffusion of Salt ( m^2/s )*/
(PID.TID 0000.0001)    15 @  3.000000000000000E-05              /* K =  1: 15 */
(PID.TID 0000.0001)     ;
(PID.TID 0000.0001) diffKrBL79surf =   /* Surface diffusion for Bryan and Lewis 1979 ( m^2/s ) */
(PID.TID 0000.0001)                 0.000000000000000E+00
(PID.TID 0000.0001)     ;
(PID.TID 0000.0001) diffKrBL79deep =   /* Deep diffusion for Bryan and Lewis 1979 ( m^2/s ) */
(PID.TID 0000.0001)                 0.000000000000000E+00
(PID.TID 0000.0001)     ;
(PID.TID 0000.0001) diffKrBL79scl =   /* Depth scale for Bryan and Lewis 1979 ( m ) */
(PID.TID 0000.0001)                 2.000000000000000E+02
(PID.TID 0000.0001)     ;
(PID.TID 0000.0001) diffKrBL79Ho =   /* Turning depth for Bryan and Lewis 1979 ( m ) */
(PID.TID 0000.0001)                -2.000000000000000E+03
(PID.TID 0000.0001)     ;
(PID.TID 0000.0001) ivdc_kappa = /* Implicit Vertical Diffusivity for Convection ( m^2/s ) */
(PID.TID 0000.0001)                 1.000000000000000E+02
(PID.TID 0000.0001)     ;
(PID.TID 0000.0001) hMixCriteria=  /* Criteria for mixed-layer diagnostic */
(PID.TID 0000.0001)                -8.000000000000000E-01
(PID.TID 0000.0001)     ;
(PID.TID 0000.0001) eosType =  /* Type of Equation of State */
(PID.TID 0000.0001)               'JMD95Z'
(PID.TID 0000.0001)     ;
(PID.TID 0000.0001) tAlpha =   /* Linear EOS thermal expansion coefficient ( 1/oC ) */
(PID.TID 0000.0001)                 1.234567000000000E+05
(PID.TID 0000.0001)     ;
(PID.TID 0000.0001) sBeta =   /* Linear EOS haline contraction coefficient ( 1/psu ) */
(PID.TID 0000.0001)                 1.234567000000000E+05
(PID.TID 0000.0001)     ;
(PID.TID 0000.0001) rhonil =   /* Reference density ( kg/m^3 ) */
(PID.TID 0000.0001)                 1.035000000000000E+03
(PID.TID 0000.0001)     ;
(PID.TID 0000.0001) rhoConst =   /* Reference density ( kg/m^3 ) */
(PID.TID 0000.0001)                 1.035000000000000E+03
(PID.TID 0000.0001)     ;
(PID.TID 0000.0001) rhoFacC = /* normalized Reference density @ cell-Center (-) */
(PID.TID 0000.0001)    15 @  1.000000000000000E+00              /* K =  1: 15 */
(PID.TID 0000.0001)     ;
(PID.TID 0000.0001) rhoFacF = /* normalized Reference density @ W-Interface (-) */
(PID.TID 0000.0001)    16 @  1.000000000000000E+00              /* K =  1: 16 */
(PID.TID 0000.0001)     ;
(PID.TID 0000.0001) rhoConstFresh =   /* Reference density ( kg/m^3 ) */
(PID.TID 0000.0001)                 1.000000000000000E+03
(PID.TID 0000.0001)     ;
(PID.TID 0000.0001) gravity =   /* Gravitational acceleration ( m/s^2 ) */
(PID.TID 0000.0001)                 9.810000000000000E+00
(PID.TID 0000.0001)     ;
(PID.TID 0000.0001) gBaro =   /* Barotropic gravity ( m/s^2 ) */
(PID.TID 0000.0001)                 9.810000000000000E+00
(PID.TID 0000.0001)     ;
(PID.TID 0000.0001) rotationPeriod =   /* Rotation Period ( s ) */
(PID.TID 0000.0001)                 8.616400000000000E+04
(PID.TID 0000.0001)     ;
(PID.TID 0000.0001) omega =   /* Angular velocity ( rad/s ) */
(PID.TID 0000.0001)                 7.292123516990375E-05
(PID.TID 0000.0001)     ;
(PID.TID 0000.0001) f0 =   /* Reference coriolis parameter ( 1/s ) */
(PID.TID 0000.0001)                 1.000000000000000E-04
(PID.TID 0000.0001)     ;
(PID.TID 0000.0001) beta =   /* Beta ( 1/(m.s) ) */
(PID.TID 0000.0001)                 9.999999999999999E-12
(PID.TID 0000.0001)     ;
(PID.TID 0000.0001) freeSurfFac =   /* Implicit free surface factor */
(PID.TID 0000.0001)                 1.000000000000000E+00
(PID.TID 0000.0001)     ;
(PID.TID 0000.0001) implicitFreeSurface =   /* Implicit free surface on/off flag */
(PID.TID 0000.0001)                   T
(PID.TID 0000.0001)     ;
(PID.TID 0000.0001) rigidLid =   /* Rigid lid on/off flag */
(PID.TID 0000.0001)                   F
(PID.TID 0000.0001)     ;
(PID.TID 0000.0001) implicSurfPress =   /* Surface Pressure implicit factor (0-1)*/
(PID.TID 0000.0001)                 1.000000000000000E+00
(PID.TID 0000.0001)     ;
(PID.TID 0000.0001) implicDiv2Dflow =   /* Barot. Flow Div. implicit factor (0-1)*/
(PID.TID 0000.0001)                 1.000000000000000E+00
(PID.TID 0000.0001)     ;
(PID.TID 0000.0001) exactConserv =   /* Exact Volume Conservation on/off flag*/
(PID.TID 0000.0001)                   T
(PID.TID 0000.0001)     ;
(PID.TID 0000.0001) linFSConserveTr =   /* Tracer correction for Lin Free Surface on/off flag*/
(PID.TID 0000.0001)                   F
(PID.TID 0000.0001)     ;
(PID.TID 0000.0001) uniformLin_PhiSurf =   /* use uniform Bo_surf on/off flag*/
(PID.TID 0000.0001)                   T
(PID.TID 0000.0001)     ;
(PID.TID 0000.0001) nonlinFreeSurf =   /* Non-linear Free Surf. options (-1,0,1,2,3)*/
(PID.TID 0000.0001)                       0
(PID.TID 0000.0001)     ;
(PID.TID 0000.0001)      -1,0= Off ; 1,2,3= On, 2=+rescale gU,gV, 3=+update cg2d solv.
(PID.TID 0000.0001) hFacInf =   /* lower threshold for hFac (nonlinFreeSurf only)*/
(PID.TID 0000.0001)                 2.000000000000000E-01
(PID.TID 0000.0001)     ;
(PID.TID 0000.0001) hFacSup =   /* upper threshold for hFac (nonlinFreeSurf only)*/
(PID.TID 0000.0001)                 2.000000000000000E+00
(PID.TID 0000.0001)     ;
(PID.TID 0000.0001) select_rStar =   /* r* Coordinate options (not yet implemented)*/
(PID.TID 0000.0001)                       0
(PID.TID 0000.0001)     ;
(PID.TID 0000.0001) useRealFreshWaterFlux =   /* Real Fresh Water Flux on/off flag*/
(PID.TID 0000.0001)                   T
(PID.TID 0000.0001)     ;
(PID.TID 0000.0001) convertFW2Salt = /* convert F.W. Flux to Salt Flux (-1=use local S)(ppt)*/
(PID.TID 0000.0001)                -1.000000000000000E+00
(PID.TID 0000.0001)     ;
(PID.TID 0000.0001) use3Dsolver = /* use 3-D pressure solver on/off flag */
(PID.TID 0000.0001)                   F
(PID.TID 0000.0001)     ;
(PID.TID 0000.0001) nonHydrostatic =  /* Non-Hydrostatic on/off flag */
(PID.TID 0000.0001)                   F
(PID.TID 0000.0001)     ;
(PID.TID 0000.0001) nh_Am2 = /* Non-Hydrostatic terms scaling factor */
(PID.TID 0000.0001)                 1.000000000000000E+00
(PID.TID 0000.0001)     ;
(PID.TID 0000.0001) quasiHydrostatic = /* Quasi-Hydrostatic on/off flag */
(PID.TID 0000.0001)                   F
(PID.TID 0000.0001)     ;
(PID.TID 0000.0001) momStepping =  /* Momentum equation on/off flag */
(PID.TID 0000.0001)                   T
(PID.TID 0000.0001)     ;
(PID.TID 0000.0001) vectorInvariantMomentum= /* Vector-Invariant Momentum on/off */
(PID.TID 0000.0001)                   F
(PID.TID 0000.0001)     ;
(PID.TID 0000.0001) momAdvection =  /* Momentum advection on/off flag */
(PID.TID 0000.0001)                   T
(PID.TID 0000.0001)     ;
(PID.TID 0000.0001) momViscosity =  /* Momentum viscosity on/off flag */
(PID.TID 0000.0001)                   T
(PID.TID 0000.0001)     ;
(PID.TID 0000.0001) momImplVertAdv =/* Momentum implicit vert. advection on/off*/
(PID.TID 0000.0001)                   F
(PID.TID 0000.0001)     ;
(PID.TID 0000.0001) implicitViscosity = /* Implicit viscosity on/off flag */
(PID.TID 0000.0001)                   F
(PID.TID 0000.0001)     ;
(PID.TID 0000.0001) metricTerms =  /* metric-Terms on/off flag */
(PID.TID 0000.0001)                   T
(PID.TID 0000.0001)     ;
(PID.TID 0000.0001) useNHMTerms = /* Non-Hydrostatic Metric-Terms on/off */
(PID.TID 0000.0001)                   F
(PID.TID 0000.0001)     ;
(PID.TID 0000.0001) useConstantF =  /* use Constant f0 Coriolis flag */
(PID.TID 0000.0001)                   F
(PID.TID 0000.0001)     ;
(PID.TID 0000.0001) useBetaPlaneF = /* use Beta-Plane Coriolis flag */
(PID.TID 0000.0001)                   F
(PID.TID 0000.0001)     ;
(PID.TID 0000.0001) useSphereF  =   /* use Spherical Coriolis flag */
(PID.TID 0000.0001)                   T
(PID.TID 0000.0001)     ;
(PID.TID 0000.0001) use3dCoriolis = /* 3-D Coriolis on/off flag */
(PID.TID 0000.0001)                   F
(PID.TID 0000.0001)     ;
(PID.TID 0000.0001) useCoriolis =  /* Coriolis on/off flag */
(PID.TID 0000.0001)                   T
(PID.TID 0000.0001)     ;
(PID.TID 0000.0001) useCDscheme =  /* CD scheme on/off flag */
(PID.TID 0000.0001)                   T
(PID.TID 0000.0001)     ;
(PID.TID 0000.0001) useJamartWetPoints= /* Coriolis WetPoints method flag */
(PID.TID 0000.0001)                   F
(PID.TID 0000.0001)     ;
(PID.TID 0000.0001) useJamartMomAdv= /* V.I. Non-linear terms Jamart flag */
(PID.TID 0000.0001)                   F
(PID.TID 0000.0001)     ;
(PID.TID 0000.0001) SadournyCoriolis= /* Sadourny Coriolis discr. flag */
(PID.TID 0000.0001)                   F
(PID.TID 0000.0001)     ;
(PID.TID 0000.0001) upwindVorticity= /* Upwind bias vorticity flag */
(PID.TID 0000.0001)                   F
(PID.TID 0000.0001)     ;
(PID.TID 0000.0001) useAbsVorticity= /* Work with f+zeta in Coriolis */
(PID.TID 0000.0001)                   F
(PID.TID 0000.0001)     ;
(PID.TID 0000.0001) highOrderVorticity= /* High order interp. of vort. flag */
(PID.TID 0000.0001)                   F
(PID.TID 0000.0001)     ;
(PID.TID 0000.0001) upwindShear= /* Upwind vertical Shear advection flag */
(PID.TID 0000.0001)                   F
(PID.TID 0000.0001)     ;
(PID.TID 0000.0001) selectKEscheme= /* Kinetic Energy scheme selector */
(PID.TID 0000.0001)                       0
(PID.TID 0000.0001)     ;
(PID.TID 0000.0001) momForcing =  /* Momentum forcing on/off flag */
(PID.TID 0000.0001)                   T
(PID.TID 0000.0001)     ;
(PID.TID 0000.0001) momPressureForcing =  /* Momentum pressure term on/off flag */
(PID.TID 0000.0001)                   T
(PID.TID 0000.0001)     ;
(PID.TID 0000.0001) implicitIntGravWave= /* Implicit Internal Gravity Wave flag */
(PID.TID 0000.0001)                   F
(PID.TID 0000.0001)     ;
(PID.TID 0000.0001) staggerTimeStep =   /* Stagger time stepping on/off flag */
(PID.TID 0000.0001)                   F
(PID.TID 0000.0001)     ;
(PID.TID 0000.0001) multiDimAdvection =   /* enable/disable Multi-Dim Advection */
(PID.TID 0000.0001)                   T
(PID.TID 0000.0001)     ;
(PID.TID 0000.0001) useMultiDimAdvec =   /* Multi-Dim Advection is/is-not used */
(PID.TID 0000.0001)                   F
(PID.TID 0000.0001)     ;
(PID.TID 0000.0001) implicitDiffusion =/* Implicit Diffusion on/off flag */
(PID.TID 0000.0001)                   T
(PID.TID 0000.0001)     ;
(PID.TID 0000.0001) tempStepping =  /* Temperature equation on/off flag */
(PID.TID 0000.0001)                   T
(PID.TID 0000.0001)     ;
(PID.TID 0000.0001) tempAdvection=  /* Temperature advection on/off flag */
(PID.TID 0000.0001)                   T
(PID.TID 0000.0001)     ;
(PID.TID 0000.0001) tempImplVertAdv =/* Temp. implicit vert. advection on/off */
(PID.TID 0000.0001)                   F
(PID.TID 0000.0001)     ;
(PID.TID 0000.0001) tempForcing  =  /* Temperature forcing on/off flag */
(PID.TID 0000.0001)                   T
(PID.TID 0000.0001)     ;
(PID.TID 0000.0001) saltStepping =  /* Salinity equation on/off flag */
(PID.TID 0000.0001)                   T
(PID.TID 0000.0001)     ;
(PID.TID 0000.0001) saltAdvection=  /* Salinity advection on/off flag */
(PID.TID 0000.0001)                   T
(PID.TID 0000.0001)     ;
(PID.TID 0000.0001) saltImplVertAdv =/* Sali. implicit vert. advection on/off */
(PID.TID 0000.0001)                   F
(PID.TID 0000.0001)     ;
(PID.TID 0000.0001) saltForcing  =  /* Salinity forcing on/off flag */
(PID.TID 0000.0001)                   T
(PID.TID 0000.0001)     ;
(PID.TID 0000.0001)  readBinaryPrec = /* Precision used for reading binary files */
(PID.TID 0000.0001)                      32
(PID.TID 0000.0001)     ;
(PID.TID 0000.0001) writeBinaryPrec = /* Precision used for writing binary files */
(PID.TID 0000.0001)                      32
(PID.TID 0000.0001)     ;
(PID.TID 0000.0001)  globalFiles = /* write "global" (=not per tile) files */
(PID.TID 0000.0001)                   F
(PID.TID 0000.0001)     ;
(PID.TID 0000.0001)  useSingleCpuIO = /* only master MPI process does I/O */
(PID.TID 0000.0001)                   F
(PID.TID 0000.0001)     ;
(PID.TID 0000.0001)  debugMode  =  /* Debug Mode on/off flag */
(PID.TID 0000.0001)                   F
(PID.TID 0000.0001)     ;
(PID.TID 0000.0001)    debLevA  =  /* 1rst level of debugging */
(PID.TID 0000.0001)                       1
(PID.TID 0000.0001)     ;
(PID.TID 0000.0001)    debLevB  =  /* 2nd  level of debugging */
(PID.TID 0000.0001)                       2
(PID.TID 0000.0001)     ;
(PID.TID 0000.0001)  debugLevel =  /* select debugging level */
(PID.TID 0000.0001)                       1
(PID.TID 0000.0001)     ;
(PID.TID 0000.0001) //
(PID.TID 0000.0001) // Elliptic solver(s) paramters ( PARM02 in namelist )
(PID.TID 0000.0001) //
(PID.TID 0000.0001) cg2dMaxIters =   /* Upper limit on 2d con. grad iterations  */
(PID.TID 0000.0001)                     500
(PID.TID 0000.0001)     ;
(PID.TID 0000.0001) cg2dChkResFreq =   /* 2d con. grad convergence test frequency */
(PID.TID 0000.0001)                       1
(PID.TID 0000.0001)     ;
(PID.TID 0000.0001) cg2dTargetResidual =   /* 2d con. grad target residual  */
(PID.TID 0000.0001)                 1.000000000000000E-19
(PID.TID 0000.0001)     ;
(PID.TID 0000.0001) cg2dTargetResWunit =   /* CG2d target residual [W units] */
(PID.TID 0000.0001)                -1.000000000000000E+00
(PID.TID 0000.0001)     ;
(PID.TID 0000.0001) cg2dPreCondFreq =   /* Freq. for updating cg2d preconditioner */
(PID.TID 0000.0001)                       1
(PID.TID 0000.0001)     ;
(PID.TID 0000.0001) //
(PID.TID 0000.0001) // Time stepping paramters ( PARM03 in namelist )
(PID.TID 0000.0001) //
(PID.TID 0000.0001) deltaTmom =   /* Momentum equation timestep ( s ) */
(PID.TID 0000.0001)                 1.800000000000000E+03
(PID.TID 0000.0001)     ;
(PID.TID 0000.0001) deltaTfreesurf =   /* FreeSurface equation timestep ( s ) */
(PID.TID 0000.0001)                 8.640000000000000E+04
(PID.TID 0000.0001)     ;
(PID.TID 0000.0001) dTtracerLev =   /* Tracer equation timestep ( s ) */
(PID.TID 0000.0001)    15 @  8.640000000000000E+04              /* K =  1: 15 */
(PID.TID 0000.0001)     ;
(PID.TID 0000.0001) deltaTClock  =   /* Model clock timestep ( s ) */
(PID.TID 0000.0001)                 8.640000000000000E+04
(PID.TID 0000.0001)     ;
(PID.TID 0000.0001) cAdjFreq =   /* Convective adjustment interval ( s ) */
(PID.TID 0000.0001)                 0.000000000000000E+00
(PID.TID 0000.0001)     ;
(PID.TID 0000.0001) momForcingOutAB = /* =1: take Momentum Forcing out of Adams-Bash. stepping */
(PID.TID 0000.0001)                       0
(PID.TID 0000.0001)     ;
(PID.TID 0000.0001) tracForcingOutAB = /* =1: take T,S,pTr Forcing out of Adams-Bash. stepping */
(PID.TID 0000.0001)                       0
(PID.TID 0000.0001)     ;
(PID.TID 0000.0001) momDissip_In_AB = /* put Dissipation Tendency in Adams-Bash. stepping */
(PID.TID 0000.0001)                   T
(PID.TID 0000.0001)     ;
(PID.TID 0000.0001) doAB_onGtGs = /* apply AB on Tendencies (rather than on T,S)*/
(PID.TID 0000.0001)                   T
(PID.TID 0000.0001)     ;
(PID.TID 0000.0001) abEps =   /* Adams-Bashforth-2 stabilizing weight */
(PID.TID 0000.0001)                 1.000000000000000E-01
(PID.TID 0000.0001)     ;
(PID.TID 0000.0001) tauCD =   /* CD coupling time-scale ( s ) */
(PID.TID 0000.0001)                 3.214280000000000E+05
(PID.TID 0000.0001)     ;
(PID.TID 0000.0001) rCD =   /* Normalised CD coupling parameter */
(PID.TID 0000.0001)                 9.943999900444267E-01
(PID.TID 0000.0001)     ;
(PID.TID 0000.0001) pickupStrictlyMatch= /* stop if pickup do not strictly match */
(PID.TID 0000.0001)                   T
(PID.TID 0000.0001)     ;
(PID.TID 0000.0001) nIter0 =   /* Run starting timestep number  */
(PID.TID 0000.0001)                       0
(PID.TID 0000.0001)     ;
(PID.TID 0000.0001) nTimeSteps =   /* Number of timesteps */
(PID.TID 0000.0001)                      10
(PID.TID 0000.0001)     ;
(PID.TID 0000.0001) baseTime =   /* Model base time ( s ). */
(PID.TID 0000.0001)                 0.000000000000000E+00
(PID.TID 0000.0001)     ;
(PID.TID 0000.0001) startTime =   /* Run start time ( s ). */
(PID.TID 0000.0001)                 0.000000000000000E+00
(PID.TID 0000.0001)     ;
(PID.TID 0000.0001) endTime =   /* Integration ending time ( s ). */
(PID.TID 0000.0001)                 8.640000000000000E+05
(PID.TID 0000.0001)     ;
(PID.TID 0000.0001) pChkPtFreq =   /* Permanent restart/checkpoint file interval ( s ). */
(PID.TID 0000.0001)                 2.592000000000000E+06
(PID.TID 0000.0001)     ;
(PID.TID 0000.0001) chkPtFreq =   /* Rolling restart/checkpoint file interval ( s ). */
(PID.TID 0000.0001)                 0.000000000000000E+00
(PID.TID 0000.0001)     ;
(PID.TID 0000.0001) pickup_write_mdsio =   /* Model IO flag. */
(PID.TID 0000.0001)                   T
(PID.TID 0000.0001)     ;
(PID.TID 0000.0001) pickup_read_mdsio =   /* Model IO flag. */
(PID.TID 0000.0001)                   T
(PID.TID 0000.0001)     ;
(PID.TID 0000.0001) pickup_write_immed =   /* Model IO flag. */
(PID.TID 0000.0001)                   F
(PID.TID 0000.0001)     ;
(PID.TID 0000.0001) dumpFreq =   /* Model state write out interval ( s ). */
(PID.TID 0000.0001)                 2.592000000000000E+06
(PID.TID 0000.0001)     ;
(PID.TID 0000.0001) dumpInitAndLast= /* write out Initial & Last iter. model state */
(PID.TID 0000.0001)                   T
(PID.TID 0000.0001)     ;
(PID.TID 0000.0001) snapshot_mdsio =   /* Model IO flag. */
(PID.TID 0000.0001)                   T
(PID.TID 0000.0001)     ;
(PID.TID 0000.0001) monitorFreq =   /* Monitor output interval ( s ). */
(PID.TID 0000.0001)                 1.000000000000000E+00
(PID.TID 0000.0001)     ;
(PID.TID 0000.0001) monitorSelect = /* select group of variables to monitor */
(PID.TID 0000.0001)                       3
(PID.TID 0000.0001)     ;
(PID.TID 0000.0001) monitor_stdio =   /* Model IO flag. */
(PID.TID 0000.0001)                   T
(PID.TID 0000.0001)     ;
(PID.TID 0000.0001) externForcingPeriod =   /* forcing period (s) */
(PID.TID 0000.0001)                 2.592000000000000E+06
(PID.TID 0000.0001)     ;
(PID.TID 0000.0001) externForcingCycle =   /* period of the cyle (s). */
(PID.TID 0000.0001)                 3.110400000000000E+07
(PID.TID 0000.0001)     ;
(PID.TID 0000.0001) tauThetaClimRelax =   /* relaxation time scale (s) */
(PID.TID 0000.0001)                 0.000000000000000E+00
(PID.TID 0000.0001)     ;
(PID.TID 0000.0001) tauSaltClimRelax =   /* relaxation time scale (s) */
(PID.TID 0000.0001)                 1.555200000000000E+07
(PID.TID 0000.0001)     ;
(PID.TID 0000.0001) latBandClimRelax =   /* max. Lat. where relaxation */
(PID.TID 0000.0001)                 1.800000000000000E+02
(PID.TID 0000.0001)     ;
(PID.TID 0000.0001) //
(PID.TID 0000.0001) // Gridding paramters ( PARM04 in namelist )
(PID.TID 0000.0001) //
(PID.TID 0000.0001) usingCartesianGrid = /* Cartesian coordinates flag ( True/False ) */
(PID.TID 0000.0001)                   F
(PID.TID 0000.0001)     ;
(PID.TID 0000.0001) usingCylindricalGrid = /* Cylindrical coordinates flag ( True/False ) */
(PID.TID 0000.0001)                   F
(PID.TID 0000.0001)     ;
(PID.TID 0000.0001) usingSphericalPolarGrid = /* Spherical coordinates flag ( True/False ) */
(PID.TID 0000.0001)                   T
(PID.TID 0000.0001)     ;
(PID.TID 0000.0001) usingCurvilinearGrid = /* Curvilinear coordinates flag ( True/False ) */
(PID.TID 0000.0001)                   F
(PID.TID 0000.0001)     ;
(PID.TID 0000.0001) Ro_SeaLevel = /* r(1) ( units of r ) */
(PID.TID 0000.0001)                 0.000000000000000E+00
(PID.TID 0000.0001)     ;
(PID.TID 0000.0001) rkSign =   /* index orientation relative to vertical coordinate */
(PID.TID 0000.0001)                -1.000000000000000E+00
(PID.TID 0000.0001)     ;
(PID.TID 0000.0001) gravitySign = /* gravity orientation relative to vertical coordinate */
(PID.TID 0000.0001)                -1.000000000000000E+00
(PID.TID 0000.0001)     ;
(PID.TID 0000.0001) mass2rUnit = /* convert mass per unit area [kg/m2] to r-units [m] */
(PID.TID 0000.0001)                 9.661835748792270E-04
(PID.TID 0000.0001)     ;
(PID.TID 0000.0001) rUnit2mass = /* convert r-units [m] to mass per unit area [kg/m2] */
(PID.TID 0000.0001)                 1.035000000000000E+03
(PID.TID 0000.0001)     ;
(PID.TID 0000.0001) drC =   /* C spacing ( units of r ) */
(PID.TID 0000.0001)                 2.500000000000000E+01,      /* K =  1 */
(PID.TID 0000.0001)                 6.000000000000000E+01,      /* K =  2 */
(PID.TID 0000.0001)                 8.500000000000000E+01,      /* K =  3 */
(PID.TID 0000.0001)                 1.200000000000000E+02,      /* K =  4 */
(PID.TID 0000.0001)                 1.650000000000000E+02,      /* K =  5 */
(PID.TID 0000.0001)                 2.150000000000000E+02,      /* K =  6 */
(PID.TID 0000.0001)                 2.650000000000000E+02,      /* K =  7 */
(PID.TID 0000.0001)                 3.150000000000000E+02,      /* K =  8 */
(PID.TID 0000.0001)                 3.650000000000000E+02,      /* K =  9 */
(PID.TID 0000.0001)                 4.150000000000000E+02,      /* K = 10 */
(PID.TID 0000.0001)                 4.650000000000000E+02,      /* K = 11 */
(PID.TID 0000.0001)                 5.150000000000000E+02,      /* K = 12 */
(PID.TID 0000.0001)                 5.650000000000000E+02,      /* K = 13 */
(PID.TID 0000.0001)                 6.150000000000000E+02,      /* K = 14 */
(PID.TID 0000.0001)                 6.650000000000000E+02       /* K = 15 */
(PID.TID 0000.0001)     ;
(PID.TID 0000.0001) drF =   /* W spacing ( units of r ) */
(PID.TID 0000.0001)                 5.000000000000000E+01,      /* K =  1 */
(PID.TID 0000.0001)                 7.000000000000000E+01,      /* K =  2 */
(PID.TID 0000.0001)                 1.000000000000000E+02,      /* K =  3 */
(PID.TID 0000.0001)                 1.400000000000000E+02,      /* K =  4 */
(PID.TID 0000.0001)                 1.900000000000000E+02,      /* K =  5 */
(PID.TID 0000.0001)                 2.400000000000000E+02,      /* K =  6 */
(PID.TID 0000.0001)                 2.900000000000000E+02,      /* K =  7 */
(PID.TID 0000.0001)                 3.400000000000000E+02,      /* K =  8 */
(PID.TID 0000.0001)                 3.900000000000000E+02,      /* K =  9 */
(PID.TID 0000.0001)                 4.400000000000000E+02,      /* K = 10 */
(PID.TID 0000.0001)                 4.900000000000000E+02,      /* K = 11 */
(PID.TID 0000.0001)                 5.400000000000000E+02,      /* K = 12 */
(PID.TID 0000.0001)                 5.900000000000000E+02,      /* K = 13 */
(PID.TID 0000.0001)                 6.400000000000000E+02,      /* K = 14 */
(PID.TID 0000.0001)                 6.900000000000000E+02       /* K = 15 */
(PID.TID 0000.0001)     ;
(PID.TID 0000.0001) delX =   /* U spacing ( m - cartesian, degrees - spherical ) */
(PID.TID 0000.0001)    90 @  4.000000000000000E+00              /* I =  1: 90 */
(PID.TID 0000.0001)     ;
(PID.TID 0000.0001) delY =   /* V spacing ( m - cartesian, degrees - spherical ) */
(PID.TID 0000.0001)    40 @  4.000000000000000E+00              /* J =  1: 40 */
(PID.TID 0000.0001)     ;
(PID.TID 0000.0001) phiMin =    /* South edge (ignored - cartesian, degrees - spherical ) */
(PID.TID 0000.0001)                -8.000000000000000E+01
(PID.TID 0000.0001)     ;
(PID.TID 0000.0001) thetaMin =    /* West edge ( ignored - cartesian, degrees - spherical ) */
(PID.TID 0000.0001)                 0.000000000000000E+00
(PID.TID 0000.0001)     ;
(PID.TID 0000.0001) rSphere =  /* Radius ( ignored - cartesian, m - spherical ) */
(PID.TID 0000.0001)                 6.370000000000000E+06
(PID.TID 0000.0001)     ;
(PID.TID 0000.0001) deepAtmosphere = /* Deep/Shallow Atmosphere flag (True/False) */
(PID.TID 0000.0001)                   F
(PID.TID 0000.0001)     ;
(PID.TID 0000.0001) xcoord =   /* P-point X coord ( m - cartesian, degrees - spherical ) */
(PID.TID 0000.0001)                 2.000000000000000E+00,      /* I =  1 */
(PID.TID 0000.0001)                 6.000000000000000E+00,      /* I =  2 */
(PID.TID 0000.0001)                 1.000000000000000E+01,      /* I =  3 */
(PID.TID 0000.0001)                 1.400000000000000E+01,      /* I =  4 */
(PID.TID 0000.0001)                 1.800000000000000E+01,      /* I =  5 */
(PID.TID 0000.0001)                 2.200000000000000E+01,      /* I =  6 */
(PID.TID 0000.0001)                 2.600000000000000E+01,      /* I =  7 */
(PID.TID 0000.0001)                 3.000000000000000E+01,      /* I =  8 */
(PID.TID 0000.0001)                 3.400000000000000E+01,      /* I =  9 */
(PID.TID 0000.0001)                 3.800000000000000E+01,      /* I = 10 */
(PID.TID 0000.0001)                 4.200000000000000E+01,      /* I = 11 */
(PID.TID 0000.0001)                 4.600000000000000E+01,      /* I = 12 */
(PID.TID 0000.0001)                 5.000000000000000E+01,      /* I = 13 */
(PID.TID 0000.0001)                 5.400000000000000E+01,      /* I = 14 */
(PID.TID 0000.0001)                 5.800000000000000E+01,      /* I = 15 */
(PID.TID 0000.0001)                 6.200000000000000E+01,      /* I = 16 */
(PID.TID 0000.0001)                 6.600000000000000E+01,      /* I = 17 */
(PID.TID 0000.0001)                 7.000000000000000E+01,      /* I = 18 */
(PID.TID 0000.0001)                 7.400000000000000E+01,      /* I = 19 */
(PID.TID 0000.0001)                 7.800000000000000E+01,      /* I = 20 */
(PID.TID 0000.0001)                 8.200000000000000E+01,      /* I = 21 */
(PID.TID 0000.0001)                 8.600000000000000E+01,      /* I = 22 */
(PID.TID 0000.0001)                 9.000000000000000E+01,      /* I = 23 */
(PID.TID 0000.0001)                 9.400000000000000E+01,      /* I = 24 */
(PID.TID 0000.0001)                 9.800000000000000E+01,      /* I = 25 */
(PID.TID 0000.0001)                 1.020000000000000E+02,      /* I = 26 */
(PID.TID 0000.0001)                 1.060000000000000E+02,      /* I = 27 */
(PID.TID 0000.0001)                 1.100000000000000E+02,      /* I = 28 */
(PID.TID 0000.0001)                 1.140000000000000E+02,      /* I = 29 */
(PID.TID 0000.0001)                 1.180000000000000E+02,      /* I = 30 */
(PID.TID 0000.0001)                 1.220000000000000E+02,      /* I = 31 */
(PID.TID 0000.0001)                 1.260000000000000E+02,      /* I = 32 */
(PID.TID 0000.0001)                 1.300000000000000E+02,      /* I = 33 */
(PID.TID 0000.0001)                 1.340000000000000E+02,      /* I = 34 */
(PID.TID 0000.0001)                 1.380000000000000E+02,      /* I = 35 */
(PID.TID 0000.0001)                 1.420000000000000E+02,      /* I = 36 */
(PID.TID 0000.0001)                 1.460000000000000E+02,      /* I = 37 */
(PID.TID 0000.0001)                 1.500000000000000E+02,      /* I = 38 */
(PID.TID 0000.0001)                 1.540000000000000E+02,      /* I = 39 */
(PID.TID 0000.0001)                 1.580000000000000E+02,      /* I = 40 */
(PID.TID 0000.0001)                 1.620000000000000E+02,      /* I = 41 */
(PID.TID 0000.0001)                 1.660000000000000E+02,      /* I = 42 */
(PID.TID 0000.0001)                 1.700000000000000E+02,      /* I = 43 */
(PID.TID 0000.0001)                 1.740000000000000E+02,      /* I = 44 */
(PID.TID 0000.0001)                 1.780000000000000E+02,      /* I = 45 */
(PID.TID 0000.0001)                 1.820000000000000E+02,      /* I = 46 */
(PID.TID 0000.0001)                 1.860000000000000E+02,      /* I = 47 */
(PID.TID 0000.0001)                 1.900000000000000E+02,      /* I = 48 */
(PID.TID 0000.0001)                 1.940000000000000E+02,      /* I = 49 */
(PID.TID 0000.0001)                 1.980000000000000E+02,      /* I = 50 */
(PID.TID 0000.0001)                 2.020000000000000E+02,      /* I = 51 */
(PID.TID 0000.0001)                 2.060000000000000E+02,      /* I = 52 */
(PID.TID 0000.0001)                 2.100000000000000E+02,      /* I = 53 */
(PID.TID 0000.0001)                 2.140000000000000E+02,      /* I = 54 */
(PID.TID 0000.0001)                 2.180000000000000E+02,      /* I = 55 */
(PID.TID 0000.0001)                 2.220000000000000E+02,      /* I = 56 */
(PID.TID 0000.0001)                 2.260000000000000E+02,      /* I = 57 */
(PID.TID 0000.0001)                 2.300000000000000E+02,      /* I = 58 */
(PID.TID 0000.0001)                 2.340000000000000E+02,      /* I = 59 */
(PID.TID 0000.0001)                 2.380000000000000E+02,      /* I = 60 */
(PID.TID 0000.0001)                 2.420000000000000E+02,      /* I = 61 */
(PID.TID 0000.0001)                 2.460000000000000E+02,      /* I = 62 */
(PID.TID 0000.0001)                 2.500000000000000E+02,      /* I = 63 */
(PID.TID 0000.0001)                 2.540000000000000E+02,      /* I = 64 */
(PID.TID 0000.0001)                 2.580000000000000E+02,      /* I = 65 */
(PID.TID 0000.0001)                 2.620000000000000E+02,      /* I = 66 */
(PID.TID 0000.0001)                 2.660000000000000E+02,      /* I = 67 */
(PID.TID 0000.0001)                 2.700000000000000E+02,      /* I = 68 */
(PID.TID 0000.0001)                 2.740000000000000E+02,      /* I = 69 */
(PID.TID 0000.0001)                 2.780000000000000E+02,      /* I = 70 */
(PID.TID 0000.0001)                 2.820000000000000E+02,      /* I = 71 */
(PID.TID 0000.0001)                 2.860000000000000E+02,      /* I = 72 */
(PID.TID 0000.0001)                 2.900000000000000E+02,      /* I = 73 */
(PID.TID 0000.0001)                 2.940000000000000E+02,      /* I = 74 */
(PID.TID 0000.0001)                 2.980000000000000E+02,      /* I = 75 */
(PID.TID 0000.0001)                 3.020000000000000E+02,      /* I = 76 */
(PID.TID 0000.0001)                 3.060000000000000E+02,      /* I = 77 */
(PID.TID 0000.0001)                 3.100000000000000E+02,      /* I = 78 */
(PID.TID 0000.0001)                 3.140000000000000E+02,      /* I = 79 */
(PID.TID 0000.0001)                 3.180000000000000E+02,      /* I = 80 */
(PID.TID 0000.0001)                 3.220000000000000E+02,      /* I = 81 */
(PID.TID 0000.0001)                 3.260000000000000E+02,      /* I = 82 */
(PID.TID 0000.0001)                 3.300000000000000E+02,      /* I = 83 */
(PID.TID 0000.0001)                 3.340000000000000E+02,      /* I = 84 */
(PID.TID 0000.0001)                 3.380000000000000E+02,      /* I = 85 */
(PID.TID 0000.0001)                 3.420000000000000E+02,      /* I = 86 */
(PID.TID 0000.0001)                 3.460000000000000E+02,      /* I = 87 */
(PID.TID 0000.0001)                 3.500000000000000E+02,      /* I = 88 */
(PID.TID 0000.0001)                 3.540000000000000E+02,      /* I = 89 */
(PID.TID 0000.0001)                 3.580000000000000E+02       /* I = 90 */
(PID.TID 0000.0001)     ;
(PID.TID 0000.0001) ycoord =   /* P-point Y coord ( m - cartesian, degrees - spherical ) */
(PID.TID 0000.0001)                -7.800000000000000E+01,      /* J =  1 */
(PID.TID 0000.0001)                -7.400000000000000E+01,      /* J =  2 */
(PID.TID 0000.0001)                -7.000000000000000E+01,      /* J =  3 */
(PID.TID 0000.0001)                -6.600000000000000E+01,      /* J =  4 */
(PID.TID 0000.0001)                -6.200000000000000E+01,      /* J =  5 */
(PID.TID 0000.0001)                -5.800000000000000E+01,      /* J =  6 */
(PID.TID 0000.0001)                -5.400000000000000E+01,      /* J =  7 */
(PID.TID 0000.0001)                -5.000000000000000E+01,      /* J =  8 */
(PID.TID 0000.0001)                -4.600000000000000E+01,      /* J =  9 */
(PID.TID 0000.0001)                -4.200000000000000E+01,      /* J = 10 */
(PID.TID 0000.0001)                -3.800000000000000E+01,      /* J = 11 */
(PID.TID 0000.0001)                -3.400000000000000E+01,      /* J = 12 */
(PID.TID 0000.0001)                -3.000000000000000E+01,      /* J = 13 */
(PID.TID 0000.0001)                -2.600000000000000E+01,      /* J = 14 */
(PID.TID 0000.0001)                -2.200000000000000E+01,      /* J = 15 */
(PID.TID 0000.0001)                -1.800000000000000E+01,      /* J = 16 */
(PID.TID 0000.0001)                -1.400000000000000E+01,      /* J = 17 */
(PID.TID 0000.0001)                -1.000000000000000E+01,      /* J = 18 */
(PID.TID 0000.0001)                -6.000000000000000E+00,      /* J = 19 */
(PID.TID 0000.0001)                -2.000000000000000E+00,      /* J = 20 */
(PID.TID 0000.0001)                 2.000000000000000E+00,      /* J = 21 */
(PID.TID 0000.0001)                 6.000000000000000E+00,      /* J = 22 */
(PID.TID 0000.0001)                 1.000000000000000E+01,      /* J = 23 */
(PID.TID 0000.0001)                 1.400000000000000E+01,      /* J = 24 */
(PID.TID 0000.0001)                 1.800000000000000E+01,      /* J = 25 */
(PID.TID 0000.0001)                 2.200000000000000E+01,      /* J = 26 */
(PID.TID 0000.0001)                 2.600000000000000E+01,      /* J = 27 */
(PID.TID 0000.0001)                 3.000000000000000E+01,      /* J = 28 */
(PID.TID 0000.0001)                 3.400000000000000E+01,      /* J = 29 */
(PID.TID 0000.0001)                 3.800000000000000E+01,      /* J = 30 */
(PID.TID 0000.0001)                 4.200000000000000E+01,      /* J = 31 */
(PID.TID 0000.0001)                 4.600000000000000E+01,      /* J = 32 */
(PID.TID 0000.0001)                 5.000000000000000E+01,      /* J = 33 */
(PID.TID 0000.0001)                 5.400000000000000E+01,      /* J = 34 */
(PID.TID 0000.0001)                 5.800000000000000E+01,      /* J = 35 */
(PID.TID 0000.0001)                 6.200000000000000E+01,      /* J = 36 */
(PID.TID 0000.0001)                 6.600000000000000E+01,      /* J = 37 */
(PID.TID 0000.0001)                 7.000000000000000E+01,      /* J = 38 */
(PID.TID 0000.0001)                 7.400000000000000E+01,      /* J = 39 */
(PID.TID 0000.0001)                 7.800000000000000E+01       /* J = 40 */
(PID.TID 0000.0001)     ;
(PID.TID 0000.0001) rcoord =   /* P-point R coordinate (  units of r ) */
(PID.TID 0000.0001)                -2.500000000000000E+01,      /* K =  1 */
(PID.TID 0000.0001)                -8.500000000000000E+01,      /* K =  2 */
(PID.TID 0000.0001)                -1.700000000000000E+02,      /* K =  3 */
(PID.TID 0000.0001)                -2.900000000000000E+02,      /* K =  4 */
(PID.TID 0000.0001)                -4.550000000000000E+02,      /* K =  5 */
(PID.TID 0000.0001)                -6.700000000000000E+02,      /* K =  6 */
(PID.TID 0000.0001)                -9.350000000000000E+02,      /* K =  7 */
(PID.TID 0000.0001)                -1.250000000000000E+03,      /* K =  8 */
(PID.TID 0000.0001)                -1.615000000000000E+03,      /* K =  9 */
(PID.TID 0000.0001)                -2.030000000000000E+03,      /* K = 10 */
(PID.TID 0000.0001)                -2.495000000000000E+03,      /* K = 11 */
(PID.TID 0000.0001)                -3.010000000000000E+03,      /* K = 12 */
(PID.TID 0000.0001)                -3.575000000000000E+03,      /* K = 13 */
(PID.TID 0000.0001)                -4.190000000000000E+03,      /* K = 14 */
(PID.TID 0000.0001)                -4.855000000000000E+03       /* K = 15 */
(PID.TID 0000.0001)     ;
(PID.TID 0000.0001) rF =   /* W-Interf. R coordinate (  units of r ) */
(PID.TID 0000.0001)                 0.000000000000000E+00,      /* K =  1 */
(PID.TID 0000.0001)                -5.000000000000000E+01,      /* K =  2 */
(PID.TID 0000.0001)                -1.200000000000000E+02,      /* K =  3 */
(PID.TID 0000.0001)                -2.200000000000000E+02,      /* K =  4 */
(PID.TID 0000.0001)                -3.600000000000000E+02,      /* K =  5 */
(PID.TID 0000.0001)                -5.500000000000000E+02,      /* K =  6 */
(PID.TID 0000.0001)                -7.900000000000000E+02,      /* K =  7 */
(PID.TID 0000.0001)                -1.080000000000000E+03,      /* K =  8 */
(PID.TID 0000.0001)                -1.420000000000000E+03,      /* K =  9 */
(PID.TID 0000.0001)                -1.810000000000000E+03,      /* K = 10 */
(PID.TID 0000.0001)                -2.250000000000000E+03,      /* K = 11 */
(PID.TID 0000.0001)                -2.740000000000000E+03,      /* K = 12 */
(PID.TID 0000.0001)                -3.280000000000000E+03,      /* K = 13 */
(PID.TID 0000.0001)                -3.870000000000000E+03,      /* K = 14 */
(PID.TID 0000.0001)                -4.510000000000000E+03,      /* K = 15 */
(PID.TID 0000.0001)                -5.200000000000000E+03       /* K = 16 */
(PID.TID 0000.0001)     ;
(PID.TID 0000.0001) deepFacC = /* deep-model grid factor @ cell-Center (-) */
(PID.TID 0000.0001)    15 @  1.000000000000000E+00              /* K =  1: 15 */
(PID.TID 0000.0001)     ;
(PID.TID 0000.0001) deepFacF = /* deep-model grid factor @ W-Interface (-) */
(PID.TID 0000.0001)    16 @  1.000000000000000E+00              /* K =  1: 16 */
(PID.TID 0000.0001)     ;
(PID.TID 0000.0001) rVel2wUnit = /* convert units: rVel -> wSpeed (=1 if z-coord)*/
(PID.TID 0000.0001)    16 @  1.000000000000000E+00              /* K =  1: 16 */
(PID.TID 0000.0001)     ;
(PID.TID 0000.0001) wUnit2rVel = /* convert units: wSpeed -> rVel (=1 if z-coord)*/
(PID.TID 0000.0001)    16 @  1.000000000000000E+00              /* K =  1: 16 */
(PID.TID 0000.0001)     ;
(PID.TID 0000.0001) dBdrRef = /* Vertical gradient of reference boyancy [(m/s/r)^2)] */
(PID.TID 0000.0001)    15 @  0.000000000000000E+00              /* K =  1: 15 */
(PID.TID 0000.0001)     ;
(PID.TID 0000.0001) dxF =  /* dxF(:,1,:,1) ( units: m ) */
(PID.TID 0000.0001)    90 @  9.246038586187513E+04              /* I =  1: 90 */
(PID.TID 0000.0001)     ;
(PID.TID 0000.0001) dxF =  /* dxF(1,:,1,:) ( units: m ) */
(PID.TID 0000.0001)                 9.246038586187513E+04,      /* J =  1 */
(PID.TID 0000.0001)                 1.225786591246834E+05,      /* J =  2 */
(PID.TID 0000.0001)                 1.520997414818001E+05,      /* J =  3 */
(PID.TID 0000.0001)                 1.808798091874300E+05,      /* J =  4 */
(PID.TID 0000.0001)                 2.087786486446736E+05,      /* J =  5 */
(PID.TID 0000.0001)                 2.356603395120765E+05,      /* J =  6 */
(PID.TID 0000.0001)                 2.613939168938713E+05,      /* J =  7 */
(PID.TID 0000.0001)                 2.858540093877838E+05,      /* J =  8 */
(PID.TID 0000.0001)                 3.089214498819034E+05,      /* J =  9 */
(PID.TID 0000.0001)                 3.304838561248741E+05,      /* J = 10 */
(PID.TID 0000.0001)                 3.504361782409254E+05,      /* J = 11 */
(PID.TID 0000.0001)                 3.686812105223082E+05,      /* J = 12 */
(PID.TID 0000.0001)                 3.851300650057323E+05,      /* J = 13 */
(PID.TID 0000.0001)                 3.997026045255871E+05,      /* J = 14 */
(PID.TID 0000.0001)                 4.123278331341585E+05,      /* J = 15 */
(PID.TID 0000.0001)                 4.229442419867491E+05,      /* J = 16 */
(PID.TID 0000.0001)                 4.315001090065870E+05,      /* J = 17 */
(PID.TID 0000.0001)                 4.379537508695838E+05,      /* J = 18 */
(PID.TID 0000.0001)                 4.422737260813012E+05,      /* J = 19 */
(PID.TID 0000.0001)     2 @  4.444389881567502E+05,             /* J = 20: 21 */
(PID.TID 0000.0001)                 4.422737260813012E+05,      /* J = 22 */
(PID.TID 0000.0001)                 4.379537508695838E+05,      /* J = 23 */
(PID.TID 0000.0001)                 4.315001090065870E+05,      /* J = 24 */
(PID.TID 0000.0001)                 4.229442419867491E+05,      /* J = 25 */
(PID.TID 0000.0001)                 4.123278331341585E+05,      /* J = 26 */
(PID.TID 0000.0001)                 3.997026045255871E+05,      /* J = 27 */
(PID.TID 0000.0001)                 3.851300650057323E+05,      /* J = 28 */
(PID.TID 0000.0001)                 3.686812105223082E+05,      /* J = 29 */
(PID.TID 0000.0001)                 3.504361782409254E+05,      /* J = 30 */
(PID.TID 0000.0001)                 3.304838561248741E+05,      /* J = 31 */
(PID.TID 0000.0001)                 3.089214498819034E+05,      /* J = 32 */
(PID.TID 0000.0001)                 2.858540093877838E+05,      /* J = 33 */
(PID.TID 0000.0001)                 2.613939168938713E+05,      /* J = 34 */
(PID.TID 0000.0001)                 2.356603395120765E+05,      /* J = 35 */
(PID.TID 0000.0001)                 2.087786486446736E+05,      /* J = 36 */
(PID.TID 0000.0001)                 1.808798091874300E+05,      /* J = 37 */
(PID.TID 0000.0001)                 1.520997414818001E+05,      /* J = 38 */
(PID.TID 0000.0001)                 1.225786591246834E+05,      /* J = 39 */
(PID.TID 0000.0001)                 9.246038586187513E+04       /* J = 40 */
(PID.TID 0000.0001)     ;
(PID.TID 0000.0001) dyF =  /* dyF(:,1,:,1) ( units: m ) */
(PID.TID 0000.0001)    90 @  4.447098934081552E+05              /* I =  1: 90 */
(PID.TID 0000.0001)     ;
(PID.TID 0000.0001) dyF =  /* dyF(1,:,1,:) ( units: m ) */
(PID.TID 0000.0001)    40 @  4.447098934081552E+05              /* J =  1: 40 */
(PID.TID 0000.0001)     ;
(PID.TID 0000.0001) dxG =  /* dxG(:,1,:,1) ( units: m ) */
(PID.TID 0000.0001)    90 @  7.722306258078101E+04              /* I =  1: 90 */
(PID.TID 0000.0001)     ;
(PID.TID 0000.0001) dxG =  /* dxG(1,:,1,:) ( units: m ) */
(PID.TID 0000.0001)                 7.722306258078101E+04,      /* J =  1 */
(PID.TID 0000.0001)                 1.075850604052271E+05,      /* J =  2 */
(PID.TID 0000.0001)                 1.374229146297914E+05,      /* J =  3 */
(PID.TID 0000.0001)                 1.665912582279823E+05,      /* J =  4 */
(PID.TID 0000.0001)                 1.949479859617814E+05,      /* J =  5 */
(PID.TID 0000.0001)                 2.223549467040777E+05,      /* J =  6 */
(PID.TID 0000.0001)                 2.486786164970726E+05,      /* J =  7 */
(PID.TID 0000.0001)                 2.737907490675810E+05,      /* J =  8 */
(PID.TID 0000.0001)                 2.975690006299821E+05,      /* J =  9 */
(PID.TID 0000.0001)                 3.198975259328452E+05,      /* J = 10 */
(PID.TID 0000.0001)                 3.406675426453503E+05,      /* J = 11 */
(PID.TID 0000.0001)                 3.597778613338690E+05,      /* J = 12 */
(PID.TID 0000.0001)                 3.771353784467131E+05,      /* J = 13 */
(PID.TID 0000.0001)                 3.926555299052806E+05,      /* J = 14 */
(PID.TID 0000.0001)                 4.062627030917454E+05,      /* J = 15 */
(PID.TID 0000.0001)                 4.178906052261313E+05,      /* J = 16 */
(PID.TID 0000.0001)                 4.274825863380723E+05,      /* J = 17 */
(PID.TID 0000.0001)                 4.349919152597734E+05,      /* J = 18 */
(PID.TID 0000.0001)                 4.403820072955634E+05,      /* J = 19 */
(PID.TID 0000.0001)                 4.436266024588540E+05,      /* J = 20 */
(PID.TID 0000.0001)                 4.447098934081552E+05,      /* J = 21 */
(PID.TID 0000.0001)                 4.436266024588540E+05,      /* J = 22 */
(PID.TID 0000.0001)                 4.403820072955634E+05,      /* J = 23 */
(PID.TID 0000.0001)                 4.349919152597734E+05,      /* J = 24 */
(PID.TID 0000.0001)                 4.274825863380723E+05,      /* J = 25 */
(PID.TID 0000.0001)                 4.178906052261313E+05,      /* J = 26 */
(PID.TID 0000.0001)                 4.062627030917454E+05,      /* J = 27 */
(PID.TID 0000.0001)                 3.926555299052806E+05,      /* J = 28 */
(PID.TID 0000.0001)                 3.771353784467131E+05,      /* J = 29 */
(PID.TID 0000.0001)                 3.597778613338690E+05,      /* J = 30 */
(PID.TID 0000.0001)                 3.406675426453503E+05,      /* J = 31 */
(PID.TID 0000.0001)                 3.198975259328452E+05,      /* J = 32 */
(PID.TID 0000.0001)                 2.975690006299821E+05,      /* J = 33 */
(PID.TID 0000.0001)                 2.737907490675810E+05,      /* J = 34 */
(PID.TID 0000.0001)                 2.486786164970726E+05,      /* J = 35 */
(PID.TID 0000.0001)                 2.223549467040777E+05,      /* J = 36 */
(PID.TID 0000.0001)                 1.949479859617814E+05,      /* J = 37 */
(PID.TID 0000.0001)                 1.665912582279823E+05,      /* J = 38 */
(PID.TID 0000.0001)                 1.374229146297914E+05,      /* J = 39 */
(PID.TID 0000.0001)                 1.075850604052271E+05       /* J = 40 */
(PID.TID 0000.0001)     ;
(PID.TID 0000.0001) dyG =  /* dyG(:,1,:,1) ( units: m ) */
(PID.TID 0000.0001)    90 @  4.447098934081552E+05              /* I =  1: 90 */
(PID.TID 0000.0001)     ;
(PID.TID 0000.0001) dyG =  /* dyG(1,:,1,:) ( units: m ) */
(PID.TID 0000.0001)    40 @  4.447098934081552E+05              /* J =  1: 40 */
(PID.TID 0000.0001)     ;
(PID.TID 0000.0001) dxC =  /* dxC(:,1,:,1) ( units: m ) */
(PID.TID 0000.0001)    90 @  9.246038586187513E+04              /* I =  1: 90 */
(PID.TID 0000.0001)     ;
(PID.TID 0000.0001) dxC =  /* dxC(1,:,1,:) ( units: m ) */
(PID.TID 0000.0001)                 9.246038586187513E+04,      /* J =  1 */
(PID.TID 0000.0001)                 1.225786591246834E+05,      /* J =  2 */
(PID.TID 0000.0001)                 1.520997414818001E+05,      /* J =  3 */
(PID.TID 0000.0001)                 1.808798091874300E+05,      /* J =  4 */
(PID.TID 0000.0001)                 2.087786486446736E+05,      /* J =  5 */
(PID.TID 0000.0001)                 2.356603395120765E+05,      /* J =  6 */
(PID.TID 0000.0001)                 2.613939168938713E+05,      /* J =  7 */
(PID.TID 0000.0001)                 2.858540093877838E+05,      /* J =  8 */
(PID.TID 0000.0001)                 3.089214498819034E+05,      /* J =  9 */
(PID.TID 0000.0001)                 3.304838561248741E+05,      /* J = 10 */
(PID.TID 0000.0001)                 3.504361782409254E+05,      /* J = 11 */
(PID.TID 0000.0001)                 3.686812105223082E+05,      /* J = 12 */
(PID.TID 0000.0001)                 3.851300650057323E+05,      /* J = 13 */
(PID.TID 0000.0001)                 3.997026045255871E+05,      /* J = 14 */
(PID.TID 0000.0001)                 4.123278331341585E+05,      /* J = 15 */
(PID.TID 0000.0001)                 4.229442419867491E+05,      /* J = 16 */
(PID.TID 0000.0001)                 4.315001090065870E+05,      /* J = 17 */
(PID.TID 0000.0001)                 4.379537508695838E+05,      /* J = 18 */
(PID.TID 0000.0001)                 4.422737260813012E+05,      /* J = 19 */
(PID.TID 0000.0001)     2 @  4.444389881567502E+05,             /* J = 20: 21 */
(PID.TID 0000.0001)                 4.422737260813012E+05,      /* J = 22 */
(PID.TID 0000.0001)                 4.379537508695838E+05,      /* J = 23 */
(PID.TID 0000.0001)                 4.315001090065870E+05,      /* J = 24 */
(PID.TID 0000.0001)                 4.229442419867491E+05,      /* J = 25 */
(PID.TID 0000.0001)                 4.123278331341585E+05,      /* J = 26 */
(PID.TID 0000.0001)                 3.997026045255871E+05,      /* J = 27 */
(PID.TID 0000.0001)                 3.851300650057323E+05,      /* J = 28 */
(PID.TID 0000.0001)                 3.686812105223082E+05,      /* J = 29 */
(PID.TID 0000.0001)                 3.504361782409254E+05,      /* J = 30 */
(PID.TID 0000.0001)                 3.304838561248741E+05,      /* J = 31 */
(PID.TID 0000.0001)                 3.089214498819034E+05,      /* J = 32 */
(PID.TID 0000.0001)                 2.858540093877838E+05,      /* J = 33 */
(PID.TID 0000.0001)                 2.613939168938713E+05,      /* J = 34 */
(PID.TID 0000.0001)                 2.356603395120765E+05,      /* J = 35 */
(PID.TID 0000.0001)                 2.087786486446736E+05,      /* J = 36 */
(PID.TID 0000.0001)                 1.808798091874300E+05,      /* J = 37 */
(PID.TID 0000.0001)                 1.520997414818001E+05,      /* J = 38 */
(PID.TID 0000.0001)                 1.225786591246834E+05,      /* J = 39 */
(PID.TID 0000.0001)                 9.246038586187513E+04       /* J = 40 */
(PID.TID 0000.0001)     ;
(PID.TID 0000.0001) dyC =  /* dyC(:,1,:,1) ( units: m ) */
(PID.TID 0000.0001)    90 @  4.447098934081552E+05              /* I =  1: 90 */
(PID.TID 0000.0001)     ;
(PID.TID 0000.0001) dyC =  /* dyC(1,:,1,:) ( units: m ) */
(PID.TID 0000.0001)    40 @  4.447098934081552E+05              /* J =  1: 40 */
(PID.TID 0000.0001)     ;
(PID.TID 0000.0001) dxV =  /* dxV(:,1,:,1) ( units: m ) */
(PID.TID 0000.0001)    90 @  7.722306258078101E+04              /* I =  1: 90 */
(PID.TID 0000.0001)     ;
(PID.TID 0000.0001) dxV =  /* dxV(1,:,1,:) ( units: m ) */
(PID.TID 0000.0001)                 7.722306258078101E+04,      /* J =  1 */
(PID.TID 0000.0001)                 1.075850604052271E+05,      /* J =  2 */
(PID.TID 0000.0001)                 1.374229146297914E+05,      /* J =  3 */
(PID.TID 0000.0001)                 1.665912582279823E+05,      /* J =  4 */
(PID.TID 0000.0001)                 1.949479859617814E+05,      /* J =  5 */
(PID.TID 0000.0001)                 2.223549467040777E+05,      /* J =  6 */
(PID.TID 0000.0001)                 2.486786164970726E+05,      /* J =  7 */
(PID.TID 0000.0001)                 2.737907490675810E+05,      /* J =  8 */
(PID.TID 0000.0001)                 2.975690006299821E+05,      /* J =  9 */
(PID.TID 0000.0001)                 3.198975259328452E+05,      /* J = 10 */
(PID.TID 0000.0001)                 3.406675426453503E+05,      /* J = 11 */
(PID.TID 0000.0001)                 3.597778613338690E+05,      /* J = 12 */
(PID.TID 0000.0001)                 3.771353784467131E+05,      /* J = 13 */
(PID.TID 0000.0001)                 3.926555299052806E+05,      /* J = 14 */
(PID.TID 0000.0001)                 4.062627030917454E+05,      /* J = 15 */
(PID.TID 0000.0001)                 4.178906052261313E+05,      /* J = 16 */
(PID.TID 0000.0001)                 4.274825863380723E+05,      /* J = 17 */
(PID.TID 0000.0001)                 4.349919152597734E+05,      /* J = 18 */
(PID.TID 0000.0001)                 4.403820072955634E+05,      /* J = 19 */
(PID.TID 0000.0001)                 4.436266024588540E+05,      /* J = 20 */
(PID.TID 0000.0001)                 4.447098934081552E+05,      /* J = 21 */
(PID.TID 0000.0001)                 4.436266024588540E+05,      /* J = 22 */
(PID.TID 0000.0001)                 4.403820072955634E+05,      /* J = 23 */
(PID.TID 0000.0001)                 4.349919152597734E+05,      /* J = 24 */
(PID.TID 0000.0001)                 4.274825863380723E+05,      /* J = 25 */
(PID.TID 0000.0001)                 4.178906052261313E+05,      /* J = 26 */
(PID.TID 0000.0001)                 4.062627030917454E+05,      /* J = 27 */
(PID.TID 0000.0001)                 3.926555299052806E+05,      /* J = 28 */
(PID.TID 0000.0001)                 3.771353784467131E+05,      /* J = 29 */
(PID.TID 0000.0001)                 3.597778613338690E+05,      /* J = 30 */
(PID.TID 0000.0001)                 3.406675426453503E+05,      /* J = 31 */
(PID.TID 0000.0001)                 3.198975259328452E+05,      /* J = 32 */
(PID.TID 0000.0001)                 2.975690006299821E+05,      /* J = 33 */
(PID.TID 0000.0001)                 2.737907490675810E+05,      /* J = 34 */
(PID.TID 0000.0001)                 2.486786164970726E+05,      /* J = 35 */
(PID.TID 0000.0001)                 2.223549467040777E+05,      /* J = 36 */
(PID.TID 0000.0001)                 1.949479859617814E+05,      /* J = 37 */
(PID.TID 0000.0001)                 1.665912582279823E+05,      /* J = 38 */
(PID.TID 0000.0001)                 1.374229146297914E+05,      /* J = 39 */
(PID.TID 0000.0001)                 1.075850604052271E+05       /* J = 40 */
(PID.TID 0000.0001)     ;
(PID.TID 0000.0001) dyU =  /* dyU(:,1,:,1) ( units: m ) */
(PID.TID 0000.0001)    90 @  4.447098934081552E+05              /* I =  1: 90 */
(PID.TID 0000.0001)     ;
(PID.TID 0000.0001) dyU =  /* dyU(1,:,1,:) ( units: m ) */
(PID.TID 0000.0001)    40 @  4.447098934081552E+05              /* J =  1: 40 */
(PID.TID 0000.0001)     ;
(PID.TID 0000.0001) rA  =  /* rA (:,1,:,1) ( units: m^2 ) */
(PID.TID 0000.0001)    90 @  4.110969866729047E+10              /* I =  1: 90 */
(PID.TID 0000.0001)     ;
(PID.TID 0000.0001) rA  =  /* rA (1,:,1,:) ( units: m^2 ) */
(PID.TID 0000.0001)                 4.110969866729047E+10,      /* J =  1 */
(PID.TID 0000.0001)                 5.450087291636665E+10,      /* J =  2 */
(PID.TID 0000.0001)                 6.762652439100235E+10,      /* J =  3 */
(PID.TID 0000.0001)                 8.042270623659998E+10,      /* J =  4 */
(PID.TID 0000.0001)                 9.282707674147523E+10,      /* J =  5 */
(PID.TID 0000.0001)                 1.047792030594103E+11,      /* J =  6 */
(PID.TID 0000.0001)                 1.162208556324093E+11,      /* J =  7 */
(PID.TID 0000.0001)                 1.270962918792468E+11,      /* J =  8 */
(PID.TID 0000.0001)                 1.373525277677229E+11,      /* J =  9 */
(PID.TID 0000.0001)                 1.469395959475426E+11,      /* J = 10 */
(PID.TID 0000.0001)                 1.558107891862220E+11,      /* J = 11 */
(PID.TID 0000.0001)                 1.639228879220326E+11,      /* J = 12 */
(PID.TID 0000.0001)                 1.712363708253573E+11,      /* J = 13 */
(PID.TID 0000.0001)                 1.777156073426415E+11,      /* J = 14 */
(PID.TID 0000.0001)                 1.833290312848623E+11,      /* J = 15 */
(PID.TID 0000.0001)                 1.880492946148330E+11,      /* J = 16 */
(PID.TID 0000.0001)                 1.918534006840893E+11,      /* J = 17 */
(PID.TID 0000.0001)                 1.947228162702492E+11,      /* J = 18 */
(PID.TID 0000.0001)                 1.966435618690094E+11,      /* J = 19 */
(PID.TID 0000.0001)     2 @  1.976062798008856E+11,             /* J = 20: 21 */
(PID.TID 0000.0001)                 1.966435618690094E+11,      /* J = 22 */
(PID.TID 0000.0001)                 1.947228162702492E+11,      /* J = 23 */
(PID.TID 0000.0001)                 1.918534006840893E+11,      /* J = 24 */
(PID.TID 0000.0001)                 1.880492946148330E+11,      /* J = 25 */
(PID.TID 0000.0001)                 1.833290312848623E+11,      /* J = 26 */
(PID.TID 0000.0001)                 1.777156073426415E+11,      /* J = 27 */
(PID.TID 0000.0001)                 1.712363708253573E+11,      /* J = 28 */
(PID.TID 0000.0001)                 1.639228879220326E+11,      /* J = 29 */
(PID.TID 0000.0001)                 1.558107891862220E+11,      /* J = 30 */
(PID.TID 0000.0001)                 1.469395959475426E+11,      /* J = 31 */
(PID.TID 0000.0001)                 1.373525277677229E+11,      /* J = 32 */
(PID.TID 0000.0001)                 1.270962918792468E+11,      /* J = 33 */
(PID.TID 0000.0001)                 1.162208556324093E+11,      /* J = 34 */
(PID.TID 0000.0001)                 1.047792030594103E+11,      /* J = 35 */
(PID.TID 0000.0001)                 9.282707674147523E+10,      /* J = 36 */
(PID.TID 0000.0001)                 8.042270623659998E+10,      /* J = 37 */
(PID.TID 0000.0001)                 6.762652439100235E+10,      /* J = 38 */
(PID.TID 0000.0001)                 5.450087291636665E+10,      /* J = 39 */
(PID.TID 0000.0001)                 4.110969866729047E+10       /* J = 40 */
(PID.TID 0000.0001)     ;
(PID.TID 0000.0001) rAw =  /* rAw(:,1,:,1) ( units: m^2 ) */
(PID.TID 0000.0001)    90 @  4.110969866729047E+10              /* I =  1: 90 */
(PID.TID 0000.0001)     ;
(PID.TID 0000.0001) rAw =  /* rAw(1,:,1,:) ( units: m^2 ) */
(PID.TID 0000.0001)                 4.110969866729047E+10,      /* J =  1 */
(PID.TID 0000.0001)                 5.450087291636665E+10,      /* J =  2 */
(PID.TID 0000.0001)                 6.762652439100235E+10,      /* J =  3 */
(PID.TID 0000.0001)                 8.042270623659998E+10,      /* J =  4 */
(PID.TID 0000.0001)                 9.282707674147523E+10,      /* J =  5 */
(PID.TID 0000.0001)                 1.047792030594103E+11,      /* J =  6 */
(PID.TID 0000.0001)                 1.162208556324093E+11,      /* J =  7 */
(PID.TID 0000.0001)                 1.270962918792468E+11,      /* J =  8 */
(PID.TID 0000.0001)                 1.373525277677229E+11,      /* J =  9 */
(PID.TID 0000.0001)                 1.469395959475426E+11,      /* J = 10 */
(PID.TID 0000.0001)                 1.558107891862220E+11,      /* J = 11 */
(PID.TID 0000.0001)                 1.639228879220326E+11,      /* J = 12 */
(PID.TID 0000.0001)                 1.712363708253573E+11,      /* J = 13 */
(PID.TID 0000.0001)                 1.777156073426415E+11,      /* J = 14 */
(PID.TID 0000.0001)                 1.833290312848623E+11,      /* J = 15 */
(PID.TID 0000.0001)                 1.880492946148330E+11,      /* J = 16 */
(PID.TID 0000.0001)                 1.918534006840893E+11,      /* J = 17 */
(PID.TID 0000.0001)                 1.947228162702492E+11,      /* J = 18 */
(PID.TID 0000.0001)                 1.966435618690094E+11,      /* J = 19 */
(PID.TID 0000.0001)     2 @  1.976062798008856E+11,             /* J = 20: 21 */
(PID.TID 0000.0001)                 1.966435618690094E+11,      /* J = 22 */
(PID.TID 0000.0001)                 1.947228162702492E+11,      /* J = 23 */
(PID.TID 0000.0001)                 1.918534006840893E+11,      /* J = 24 */
(PID.TID 0000.0001)                 1.880492946148330E+11,      /* J = 25 */
(PID.TID 0000.0001)                 1.833290312848623E+11,      /* J = 26 */
(PID.TID 0000.0001)                 1.777156073426415E+11,      /* J = 27 */
(PID.TID 0000.0001)                 1.712363708253573E+11,      /* J = 28 */
(PID.TID 0000.0001)                 1.639228879220326E+11,      /* J = 29 */
(PID.TID 0000.0001)                 1.558107891862220E+11,      /* J = 30 */
(PID.TID 0000.0001)                 1.469395959475426E+11,      /* J = 31 */
(PID.TID 0000.0001)                 1.373525277677229E+11,      /* J = 32 */
(PID.TID 0000.0001)                 1.270962918792468E+11,      /* J = 33 */
(PID.TID 0000.0001)                 1.162208556324093E+11,      /* J = 34 */
(PID.TID 0000.0001)                 1.047792030594103E+11,      /* J = 35 */
(PID.TID 0000.0001)                 9.282707674147523E+10,      /* J = 36 */
(PID.TID 0000.0001)                 8.042270623659998E+10,      /* J = 37 */
(PID.TID 0000.0001)                 6.762652439100235E+10,      /* J = 38 */
(PID.TID 0000.0001)                 5.450087291636665E+10,      /* J = 39 */
(PID.TID 0000.0001)                 4.110969866729047E+10       /* J = 40 */
(PID.TID 0000.0001)     ;
(PID.TID 0000.0001) rAs =  /* rAs(:,1,:,1) ( units: m^2 ) */
(PID.TID 0000.0001)    90 @  3.433488626798250E+10              /* I =  1: 90 */
(PID.TID 0000.0001)     ;
(PID.TID 0000.0001) rAs =  /* rAs(1,:,1,:) ( units: m^2 ) */
(PID.TID 0000.0001)                 3.433488626798250E+10,      /* J =  1 */
(PID.TID 0000.0001)                 4.783442523123625E+10,      /* J =  2 */
(PID.TID 0000.0001)                 6.110091968306414E+10,      /* J =  3 */
(PID.TID 0000.0001)                 7.406973659603818E+10,      /* J =  4 */
(PID.TID 0000.0001)                 8.667769319778079E+10,      /* J =  5 */
(PID.TID 0000.0001)                 9.886336479107463E+10,      /* J =  6 */
(PID.TID 0000.0001)                 1.105673840088173E+11,      /* J =  7 */
(PID.TID 0000.0001)                 1.217327300458638E+11,      /* J =  8 */
(PID.TID 0000.0001)                 1.323050064586578E+11,      /* J =  9 */
(PID.TID 0000.0001)                 1.422327061792377E+11,      /* J = 10 */
(PID.TID 0000.0001)                 1.514674624524945E+11,      /* J = 11 */
(PID.TID 0000.0001)                 1.599642844741385E+11,      /* J = 12 */
(PID.TID 0000.0001)                 1.676817765813788E+11,      /* J = 13 */
(PID.TID 0000.0001)                 1.745823399284268E+11,      /* J = 14 */
(PID.TID 0000.0001)                 1.806323556642996E+11,      /* J = 15 */
(PID.TID 0000.0001)                 1.858023487204767E+11,      /* J = 16 */
(PID.TID 0000.0001)                 1.900671314104743E+11,      /* J = 17 */
(PID.TID 0000.0001)                 1.934059261417216E+11,      /* J = 18 */
(PID.TID 0000.0001)                 1.958024666419019E+11,      /* J = 19 */
(PID.TID 0000.0001)                 1.972450772065981E+11,      /* J = 20 */
(PID.TID 0000.0001)                 1.977267295821495E+11,      /* J = 21 */
(PID.TID 0000.0001)                 1.972450772065981E+11,      /* J = 22 */
(PID.TID 0000.0001)                 1.958024666419019E+11,      /* J = 23 */
(PID.TID 0000.0001)                 1.934059261417216E+11,      /* J = 24 */
(PID.TID 0000.0001)                 1.900671314104743E+11,      /* J = 25 */
(PID.TID 0000.0001)                 1.858023487204767E+11,      /* J = 26 */
(PID.TID 0000.0001)                 1.806323556642996E+11,      /* J = 27 */
(PID.TID 0000.0001)                 1.745823399284268E+11,      /* J = 28 */
(PID.TID 0000.0001)                 1.676817765813788E+11,      /* J = 29 */
(PID.TID 0000.0001)                 1.599642844741385E+11,      /* J = 30 */
(PID.TID 0000.0001)                 1.514674624524945E+11,      /* J = 31 */
(PID.TID 0000.0001)                 1.422327061792377E+11,      /* J = 32 */
(PID.TID 0000.0001)                 1.323050064586578E+11,      /* J = 33 */
(PID.TID 0000.0001)                 1.217327300458638E+11,      /* J = 34 */
(PID.TID 0000.0001)                 1.105673840088173E+11,      /* J = 35 */
(PID.TID 0000.0001)                 9.886336479107463E+10,      /* J = 36 */
(PID.TID 0000.0001)                 8.667769319778079E+10,      /* J = 37 */
(PID.TID 0000.0001)                 7.406973659603818E+10,      /* J = 38 */
(PID.TID 0000.0001)                 6.110091968306414E+10,      /* J = 39 */
(PID.TID 0000.0001)                 4.783442523123625E+10       /* J = 40 */
(PID.TID 0000.0001)     ;
(PID.TID 0000.0001) globalArea = /* Integrated horizontal Area (m^2) */
(PID.TID 0000.0001)                 3.450614146649838E+14
(PID.TID 0000.0001)     ;
(PID.TID 0000.0001) // =======================================================
(PID.TID 0000.0001) // End of Model config. summary
(PID.TID 0000.0001) // =======================================================
(PID.TID 0000.0001) 
(PID.TID 0000.0001)  MDS_READ_FIELD: opening global file: bathymetry.bin
(PID.TID 0000.0001) // =======================================================
(PID.TID 0000.0001) // Field Model R_low (ini_masks_etc) at iteration          1
(PID.TID 0000.0001) // CMIN =         -5.200000000000000E+03
(PID.TID 0000.0001) // CMAX =         -1.200000000000000E+02
(PID.TID 0000.0001) // CINT =          1.881481481481482E+02
(PID.TID 0000.0001) // SYMBOLS (CMIN->CMAX): -abcdefghijklmnopqrstuvwxyz+
(PID.TID 0000.0001) //                  0.0: .
(PID.TID 0000.0001) // RANGE I (Lo:Hi:Step):(  -1:  92:   1)
(PID.TID 0000.0001) // RANGE J (Lo:Hi:Step):(  42:  -1:  -1)
(PID.TID 0000.0001) // RANGE K (Lo:Hi:Step):(   1:   1:   1)
(PID.TID 0000.0001) // =======================================================
(PID.TID 0000.0001) K =   1
(PID.TID 0000.0001) //                I=8       I=18      I=28      I=38      I=48      I=58      I=68      I=78      I=88
(PID.TID 0000.0001) // |--J--|101234567|901234567|901234567|901234567|901234567|901234567|901234567|901234567|901234567|9012
(PID.TID 0000.0001) //     42 ............................................zyxxmgfeeefefgimnpwwwy..+zyy.....yyyyoiiihhz+.....
(PID.TID 0000.0001) //     41 ..............................................................................................
(PID.TID 0000.0001) //     40 qlloqz+.++++zzz++++++..................................................................+++qllo
(PID.TID 0000.0001) //     39 slloorzzzzzzzzz+...++.....................................................yxxz........+zvusllo
(PID.TID 0000.0001) //     38 mqpporzzzzzz+++...........................................................zxxy+......zyyvsmqpp
(PID.TID 0000.0001) //     37 mmmuz..................................................................++...zy+...yttyy.+smmmu
(PID.TID 0000.0001) //     36 utt+.........................................mm++....................+++++++znmm.yoowssvuyutt+
(PID.TID 0000.0001) //     35 ++++.................................+zzz..rrmmkk+...+gghn...........+++....+nmiijlsoopuww++++
(PID.TID 0000.0001) //     34 .....................................+vvy.ggqyxv+y.ccdffhim..................+nihhikkihhm+....
(PID.TID 0000.0001) //     33 +.....................................uuz---h------aaabdefin+.................zqvddflifffw+...
(PID.TID 0000.0001) //     32 +.....................................+t----h---------acdfgnn................+++gdffkofffm+...
(PID.TID 0000.0001) //     31 ......................................-----ad--------abddegil..............qbaafccdhqqgddm....
(PID.TID 0000.0001) //     30 .....................................f----b--b------------abd............zfbb--fbcdosjfddi....
(PID.TID 0000.0001) //     29 ...................................tu----e---fjg----------abdf...........eaac--abfmijaadgi....
(PID.TID 0000.0001) //     28 .................................+xfl-------------------bdedefi.........qbaa---aemfbbaaejz....
(PID.TID 0000.0001) //     27 ................xx..............+wfgfpf--------eallc---bbbccefgi...+++x.qb-----akfa---ah......
(PID.TID 0000.0001) //     26 ................xnn...........+vd---dna------a--aicfna---aabdfghku.++xssuy-----bgca---ci......
(PID.TID 0000.0001) //     25 ................iiik...oo+...+ivd---doaa-bc--ilglf--aa---aabcghhkll...ssum+xaaacjbaabdjk......
(PID.TID 0000.0001) //     24 ..............xnheeft.kkk+...uii.aagdm----aa-----a-------bbbcdefjljjju.zummwwbbchba--abi......
(PID.TID 0000.0001) //     23 ..............xgheefp.iikw...uuw..fihi----fed-----eaaa--bbbbcdfflkjiiiq....zykccefa--abd......
(PID.TID 0000.0001) //     22 uss...........bbelffslffkk...zz.wqkeeqoheccdfa-----egabaabcdddegghliiiqq......xeeehheehccquss.
(PID.TID 0000.0001) //     21 bbeir........nbbcdjhqdddiiz.....wqfeelgghmedea-----bibbcddddddefghklnqoo........ieeflhgcccbbei
(PID.TID 0000.0001) //     20 bbder.......ldcccdgkccccidd......z.vkkktqqhegg----aaacddddddddefghkiiijl.........nhfa--gfcbbde
(PID.TID 0000.0001) //     19 cdaaf.......kddosggpaaaibbccx...+z+.....r+nlec---agaaabcddccddefikfgffff...........d---cjhcdaa
(PID.TID 0000.0001) //     18 d---d.......kglggvliaaaibbcaaeaiv++...qqzolhecccfdgkaabcdfccdeeikgfgffdd+..........d---djhd---
(PID.TID 0000.0001) //     17 c---c.......l.feewlfaaaoaa----aiv.....qqnllslmlofcdbaacceffffhhligfigeddj.........hd---ckhc---
(PID.TID 0000.0001) //     16 ba--c......tn.ddgnlfdaaqa-----lv.......vnllvllnwv--accivomfffhilhgfffeddjf........re--aeigba--
(PID.TID 0000.0001) //     15 b--dpz....+ll.ccdfhmdddlc----av.........otsxoomv---abccddfihgijkhgfffeejfff......+fd---ckfb--d
(PID.TID 0000.0001) //     14 c--mcl....weeqbaafilkfend--eagy.........hhstofft----aacdheefijkmjhhjijiffff.....zlfdaaadlfc--m
(PID.TID 0000.0001) //     13 cclbbg....nccobaaiddgkffqrqeaal.........eeutqfft------aaceeffhijlkjhhigfffq....+jgfodccflhcclb
(PID.TID 0000.0001) //     12 hgaaacw+iiicclemhdddfliigfdcaabfaaaz....ccsurqpc--------abcifffikiiihhggff.....kbbbdfffglhhgaa
(PID.TID 0000.0001) //     11 gcaaacbbifccennhbbdefnihgfdccaaaa----..dcccnt.ncab-------aabcdfilhggjiggff....l---abcefjlkgcaa
(PID.TID 0000.0001) //     10 fcaaccbdaacfrllfbbdegkmmljhfdddba----d.dcccfx.nyrebaba----abcdgilhfeegijgi..+w--aa-abcfilkfcaa
(PID.TID 0000.0001) //      9 ffcdcccaaaoqsolfdeehikihhlllgfedcccccdmdcccf.vyfaaaaaaaa--abdehmjhfeeefglv.++w-----abcdfklffcd
(PID.TID 0000.0001) //      8 iffjklcaafddffeeccvznkfffhhhlkjifgjkkfeeddfsyvcaaaaaaccdcccdfgjligedbbceg+.++xffn--cfddefliffj
(PID.TID 0000.0001) //      7 mqnnbbkkf--bmbaabbgtykfddeffeeddccdfhlffeelfbaaaaaacddeghgjgjlligeddaaabedfiiiiiisvkfkecchmqnn
(PID.TID 0000.0001) //      6 ca-------------aabcelttdddedddddccccdfkkiiffbaaaabcdgimmkmefecaaabbbaaabbdfiiiiispmmregifcca--
(PID.TID 0000.0001) //      5 -------a-------aaccehhhiddeddddddcccdfiikomodddefffmlmigedccaaaaaaaababbbdfiijsqgeccccbaa-----
(PID.TID 0000.0001) //      4 -ahebaabbbbbeihffgijiiiijpywnnpokkomkiiijmmmolkommmgffeeedccaaaaaabbcccefhmz..yjgeccccbaa--ahe
(PID.TID 0000.0001) //      3 ffhhrpjiiwyy............................yxotmjjjjgfeeeeeeddeffffheddeghjkyy..yqjgeddccdbbgffhh
(PID.TID 0000.0001) //      2 ............................................zyxxmgfeeefefgimnpwwwy..+zyy.....yyyyoiiihhz+.....
(PID.TID 0000.0001) //      1 ..............................................................................................
(PID.TID 0000.0001) //      0 qlloqz+.++++zzz++++++..................................................................+++qllo
(PID.TID 0000.0001) //     -1 slloorzzzzzzzzz+...++.....................................................yxxz........+zvusllo
(PID.TID 0000.0001) // =======================================================
(PID.TID 0000.0001) // END OF FIELD                                          =
(PID.TID 0000.0001) // =======================================================
(PID.TID 0000.0001) 
(PID.TID 0000.0001) // =======================================================
(PID.TID 0000.0001) // Field Model Ro_surf (ini_masks_etc) at iteration          1
(PID.TID 0000.0001) // CMIN =          1.000000000000000E+32
(PID.TID 0000.0001) // CMAX =         -1.000000000000000E+32
(PID.TID 0000.0001) // CINT =          0.000000000000000E+00
(PID.TID 0000.0001) // SYMBOLS (CMIN->CMAX): -abcdefghijklmnopqrstuvwxyz+
(PID.TID 0000.0001) //                  0.0: .
(PID.TID 0000.0001) // RANGE I (Lo:Hi:Step):(  -1:  92:   1)
(PID.TID 0000.0001) // RANGE J (Lo:Hi:Step):(  42:  -1:  -1)
(PID.TID 0000.0001) // RANGE K (Lo:Hi:Step):(   1:   1:   1)
(PID.TID 0000.0001) // =======================================================
(PID.TID 0000.0001) // =======================================================
(PID.TID 0000.0001) // END OF FIELD                                          =
(PID.TID 0000.0001) // =======================================================
(PID.TID 0000.0001) 
(PID.TID 0000.0001) // =======================================================
(PID.TID 0000.0001) // Field hFacC at iteration          1
(PID.TID 0000.0001) // CMIN =          1.000000000000000E+00
(PID.TID 0000.0001) // CMAX =          1.000000000000000E+00
(PID.TID 0000.0001) // CINT =          0.000000000000000E+00
(PID.TID 0000.0001) // SYMBOLS (CMIN->CMAX): -abcdefghijklmnopqrstuvwxyz+
(PID.TID 0000.0001) //                  0.0: .
(PID.TID 0000.0001) // RANGE I (Lo:Hi:Step):(  -1:  92:   1)
(PID.TID 0000.0001) // RANGE J (Lo:Hi:Step):(  42:  -1:  -1)
(PID.TID 0000.0001) // RANGE K (Lo:Hi:Step):(   1:   1:   1)
(PID.TID 0000.0001) // =======================================================
(PID.TID 0000.0001) // =======================================================
(PID.TID 0000.0001) // END OF FIELD                                          =
(PID.TID 0000.0001) // =======================================================
(PID.TID 0000.0001) 
(PID.TID 0000.0001) // =======================================================
(PID.TID 0000.0001) // Field hFacW at iteration          1
(PID.TID 0000.0001) // CMIN =          1.000000000000000E+00
(PID.TID 0000.0001) // CMAX =          1.000000000000000E+00
(PID.TID 0000.0001) // CINT =          0.000000000000000E+00
(PID.TID 0000.0001) // SYMBOLS (CMIN->CMAX): -abcdefghijklmnopqrstuvwxyz+
(PID.TID 0000.0001) //                  0.0: .
(PID.TID 0000.0001) // RANGE I (Lo:Hi:Step):(  -1:  92:   1)
(PID.TID 0000.0001) // RANGE J (Lo:Hi:Step):(  42:  -1:  -1)
(PID.TID 0000.0001) // RANGE K (Lo:Hi:Step):(   1:   1:   1)
(PID.TID 0000.0001) // =======================================================
(PID.TID 0000.0001) // =======================================================
(PID.TID 0000.0001) // END OF FIELD                                          =
(PID.TID 0000.0001) // =======================================================
(PID.TID 0000.0001) 
(PID.TID 0000.0001) // =======================================================
(PID.TID 0000.0001) // Field hFacS at iteration          1
(PID.TID 0000.0001) // CMIN =          1.000000000000000E+00
(PID.TID 0000.0001) // CMAX =          1.000000000000000E+00
(PID.TID 0000.0001) // CINT =          0.000000000000000E+00
(PID.TID 0000.0001) // SYMBOLS (CMIN->CMAX): -abcdefghijklmnopqrstuvwxyz+
(PID.TID 0000.0001) //                  0.0: .
(PID.TID 0000.0001) // RANGE I (Lo:Hi:Step):(  -1:  92:   1)
(PID.TID 0000.0001) // RANGE J (Lo:Hi:Step):(  42:  -1:  -1)
(PID.TID 0000.0001) // RANGE K (Lo:Hi:Step):(   1:   1:   1)
(PID.TID 0000.0001) // =======================================================
(PID.TID 0000.0001) // =======================================================
(PID.TID 0000.0001) // END OF FIELD                                          =
(PID.TID 0000.0001) // =======================================================
(PID.TID 0000.0001) 
(PID.TID 0000.0001) %MON fCori_max                    =   1.4265546244797E-04
(PID.TID 0000.0001) %MON fCori_min                    =  -1.4265546244797E-04
(PID.TID 0000.0001) %MON fCori_mean                   =  -1.2347858075529E-21
(PID.TID 0000.0001) %MON fCori_sd                     =   9.6599226301547E-05
(PID.TID 0000.0001) %MON fCoriG_max                   =   1.4151032568025E-04
(PID.TID 0000.0001) %MON fCoriG_min                   =  -1.4362679550910E-04
(PID.TID 0000.0001) %MON fCoriG_mean                  =  -3.5906698877274E-06
(PID.TID 0000.0001) %MON fCoriG_sd                    =   9.6548915696244E-05
(PID.TID 0000.0001) %MON fCoriCos_max                 =   1.4575362704741E-04
(PID.TID 0000.0001) %MON fCoriCos_min                 =   3.0322354601388E-05
(PID.TID 0000.0001) %MON fCoriCos_mean                =   1.0288600773632E-04
(PID.TID 0000.0001) %MON fCoriCos_sd                  =   3.6784304327266E-05
(PID.TID 0000.0001) INI_CG2D: CG2D normalisation factor =  6.5682677425711703E-05
(PID.TID 0000.0001) 
(PID.TID 0000.0001)  MDS_READ_FIELD: opening global file: lev_t.bin
(PID.TID 0000.0001) // =======================================================
(PID.TID 0000.0001) // Field Initial Temperature at iteration          1
(PID.TID 0000.0001) // CMIN =         -1.900000000000000E+00
(PID.TID 0000.0001) // CMAX =          2.973338890075684E+01
(PID.TID 0000.0001) // CINT =          1.171606996324327E+00
(PID.TID 0000.0001) // SYMBOLS (CMIN->CMAX): -abcdefghijklmnopqrstuvwxyz+
(PID.TID 0000.0001) //                  0.0: .
(PID.TID 0000.0001) // RANGE I (Lo:Hi:Step):(   1:  90:   1)
(PID.TID 0000.0001) // RANGE J (Lo:Hi:Step):(  40:   1:  -1)
(PID.TID 0000.0001) // RANGE K (Lo:Hi:Step):(   1:   1:   1)
(PID.TID 0000.0001) // =======================================================
(PID.TID 0000.0001) K =   1
(PID.TID 0000.0001)                I=10      I=20      I=30      I=40      I=50      I=60      I=70      I=80      I=90
(PID.TID 0000.0001) |--J--|123456789|123456789|123456789|123456789|123456789|123456789|123456789|123456789|123456789|
(PID.TID 0000.0001)     40 bccdd.baa----abdedd..................................................................bbbbb
(PID.TID 0000.0001)     39 ccdddddccbbbaa...ed.....................................................----........bbbbbb
(PID.TID 0000.0001)     38 fffgfedeedddc...........................................................-----......cbbbcde
(PID.TID 0000.0001)     37 ghh..................................................................bc...bbc...edeed.defg
(PID.TID 0000.0001)     36 hh.........................................ddcb....................dcccbabccdd.eefghhihhih
(PID.TID 0000.0001)     35 hh.................................aaab..dddeddd...ffggg...........ccc....ddeeeffghijjjjih
(PID.TID 0000.0001)     34 ...................................babb.deeeeeee.ffffgghh..................ccdffghijkkkj..
(PID.TID 0000.0001)     33 ....................................accdddeeeeefffffgghhiii.................bcfijkkllllkk.
(PID.TID 0000.0001)     32 ....................................bdddeffgffgghhhhhiiijjj................dccglmnmmmmlll.
(PID.TID 0000.0001)     31 ....................................fghiiiijjjjjjkkkkklllkk..............ikkjjmooooonnmm..
(PID.TID 0000.0001)     30 ...................................mmmnmmmmmmmmmmmmmnnnnnmm............moqrrrqrqqqpppooo..
(PID.TID 0000.0001)     29 .................................pqqqqqpppppppppoppoppppponm...........ssssssrrrrrqqqqpp..
(PID.TID 0000.0001)     28 ...............................prssssrrrsssrrrrrrrrrrrrrqqpoo.........uttssstssrssrrrqqq..
(PID.TID 0000.0001)     27 ..............vv..............stuttuuuuutuuuuuuuuuuttttssrrqqq...stuu.vvvuuuuutttttsss....
(PID.TID 0000.0001)     26 ..............vvv...........uuvvvvvwwwwwwwwvvvvvvvvvuuutttsssttv.uuvxxwwwwwwvvvvuuttsr....
(PID.TID 0000.0001)     25 ..............wwwx...xxx...vvvxxxxxyyxxxxxxxxxwwwwwvvvvvuuuuuvwwx...xxxxxxwwwwwwvvutsr....
(PID.TID 0000.0001)     24 ............wwwwxyy.xxyy...wxx.yyyyyyyyyyyxxxxxxxxwwwwwwwvvwwxxyywww.xxxxxxxxxxwwwvvur....
(PID.TID 0000.0001)     23 ............xxxyyyz.xyyy...xxx..yyyyzzyyyyyyyyxxxxxxxxxwwwwwxxxwwwwwx....vwxxxxwwwwwvu....
(PID.TID 0000.0001)     22 w...........xxyyyzyyyyyz...xx.yyzzzzzzzzzzzzzyyzyyyyyyxxwwxxxxwvvvwwxw......yyyyxxxxxxwxxw
(PID.TID 0000.0001)     21 xxx........xxxxyyzzzzzzz+.....zyzzzzzzz++zzzzyyyyyyyyxxwvvwwwwvvvvvvvu........yyyyyyyyyxxx
(PID.TID 0000.0001)     20 xww.......xyyyyxyyzzzzzz+......z.zzzzz+++zzzzzzyyyyyxxxxwvwxwvuuuuuuut.........yyyyxxxxwww
(PID.TID 0000.0001)     19 vvv.......yyyyxwwxyzyyzzzzz...zzz.....++++++z++z+zzzyyyyxxxxwwvvvvvvvu...........yyxxxwwww
(PID.TID 0000.0001)     18 uut.......zzyyywwxyzyyyyzzyzzzzzz...z+z++++zz+++++++zzzyyyyxxwwwvvvvvtt..........yyxxwvvwv
(PID.TID 0000.0001)     17 uus.......z.yyyyyyxyzzyyyyyyyzz.....yzzzzzzzzzzzzzzzzzzyyyyxxwwvuuvvuut.........yyyxxwttvu
(PID.TID 0000.0001)     16 utr......yy.zyyyyxxxxxxxwxxxxy.......yyyyyyyyyyyyyyyyyyyyyyyxxwvvvuuutts........xyyyxwvuuu
(PID.TID 0000.0001)     15 ttrr....xxx.xxxwxwwwwvwwvvvww.........xwxxxxxxxxxxxxxxxxxyyyxwwwvvuttssrr......wxxxxxwwvuu
(PID.TID 0000.0001)     14 ttsq....xyxwwxwvwwwvutuuuuuuu.........wwvwwwwvwvvwwwvwvvwwwwwwvvvuuutssrr.....vwwwwwwwvvvu
(PID.TID 0000.0001)     13 tttr....wwwvvvtttuuuutttssttt.........vvvuuuuuuutttttuuuuuvwwwuuuttttssrr....uvvvvvvvvvvut
(PID.TID 0000.0001)     12 sssssstttutssssrrrrrstrqqrrssqqrrq....uuttssssrrrrrrrrrrrstttssssrssrrqp.....uuuttssttssss
(PID.TID 0000.0001)     11 poprsssrqqqqqrqppooopqpoppppppppppp..sssrrr.rqpppqqqqppppqqqoppqqqqrqqpp....prsrqqqqqppppq
(PID.TID 0000.0001)     10 lllmoooonmnnmnnnnmmmmmmlmmlllmnnnnon.qqqppp.ppppppooooooooonmnnnonnooooo..nmoponnmnnnnnmll
(PID.TID 0000.0001)      9 ihhiiiihhhhhhiiihiiiiihhhiiiijjkkmnllnnnnn.mmmmnnnnmmmmnnmmlklllllklllll.mllmmllkjiijjihhi
(PID.TID 0000.0001)      8 eeeeeeeedefgggffeeffggffffggghiiiijjijklklkkkkkkkklllkkkkjjiiijkjjjjjjkj.kkjjiihggffffedde
(PID.TID 0000.0001)      7 cccccddeedddefeddddddddddefeefffffgggghiiiiiijjjihhgggghhhhhghhhhhhhiiiihiihhgfeddddddcccc
(PID.TID 0000.0001)      6 abbcccddcccccdddddccdddddddccddddddeeeeffggggghhgeddddddeeeeeeefggggghggggffeedccbbbbbbbba
(PID.TID 0000.0001)      5 bbbcccccccccccccccccccccbbccccdddddddcccddeeddeedcbbbbbbccccccdddeeeeeddddddccbbbbaaaaaaab
(PID.TID 0000.0001)      4 bbbbbbbaaabbbbbbbbbbbbaabbabbbbcbbbbbbbbbbbbbbbbbbbabbaaabbbbbbbbbbbbbbbbb..a--aaabbbaaabb
(PID.TID 0000.0001)      3 bbbbaaa-a-............................bbaaaaaaaaaaaaaaaaaaaaaaaaaaaaaaaab..aaaaaaaabbbaaaa
(PID.TID 0000.0001)      2 ..........................................baaaaaaaaaaaa-------aa..aaaa.....aaaaaaaaaaaa...
(PID.TID 0000.0001)      1 ..........................................................................................
(PID.TID 0000.0001) // =======================================================
(PID.TID 0000.0001) // END OF FIELD                                          =
(PID.TID 0000.0001) // =======================================================
(PID.TID 0000.0001) 
(PID.TID 0000.0001)  MDS_READ_FIELD: opening global file: lev_s.bin
(PID.TID 0000.0001) // =======================================================
(PID.TID 0000.0001) // Field Initial Salinity at iteration          1
(PID.TID 0000.0001) // CMIN =          2.975276947021484E+01
(PID.TID 0000.0001) // CMAX =          3.747562789916992E+01
(PID.TID 0000.0001) // CINT =          2.860317936650029E-01
(PID.TID 0000.0001) // SYMBOLS (CMIN->CMAX): -abcdefghijklmnopqrstuvwxyz+
(PID.TID 0000.0001) //                  0.0: .
(PID.TID 0000.0001) // RANGE I (Lo:Hi:Step):(   1:  90:   1)
(PID.TID 0000.0001) // RANGE J (Lo:Hi:Step):(  40:   1:  -1)
(PID.TID 0000.0001) // RANGE K (Lo:Hi:Step):(   1:   1:   1)
(PID.TID 0000.0001) // =======================================================
(PID.TID 0000.0001) K =   1
(PID.TID 0000.0001)                I=10      I=20      I=30      I=40      I=50      I=60      I=70      I=80      I=90
(PID.TID 0000.0001) |--J--|123456789|123456789|123456789|123456789|123456789|123456789|123456789|123456789|123456789|
(PID.TID 0000.0001)     40 qrrrr.oonnooopqtutt..................................................................mnnop
(PID.TID 0000.0001)     39 rssrrrrrrrqqpn...ut.....................................................mmmm........opqqqr
(PID.TID 0000.0001)     38 ssrrqqqqrrqpo...........................................................lkkll......onoqrrs
(PID.TID 0000.0001)     37 ssr..................................................................hg...lln...qppqr.rrrs
(PID.TID 0000.0001)     36 rr.........................................lkji....................feeegikmoop.pqrssssssss
(PID.TID 0000.0001)     35 rr.................................kkkk..lllllki...jijjj...........aa-....opqrrrrrrrssttss
(PID.TID 0000.0001)     34 ...................................jlll.kklllllk.ijkkkjih..................hlpqrqrrsstts..
(PID.TID 0000.0001)     33 ....................................iklkkkkkkkkkjkkjjjjjjii.................jmprrsstttttt.
(PID.TID 0000.0001)     32 ....................................iklllkllllllllkkkkkkkji................gilpstuuttuuut.
(PID.TID 0000.0001)     31 ....................................lmnonnnnoooonnmmmmllkjj..............loopqtvvvuuuuuu..
(PID.TID 0000.0001)     30 ...................................pppppppqqqqpppoooonnmlkk............ptvxwwvvwvvvvvvvu..
(PID.TID 0000.0001)     29 .................................pqqrqqqqqqrrrqqppqqqpponmll...........vxxxxxxwwwwwxwwxw..
(PID.TID 0000.0001)     28 ...............................prrrrrqqrrrrrsrrsrssssssrqonmm.........wxxxxxxxyyyyyyyyxx..
(PID.TID 0000.0001)     27 ..............xx..............prrrrrrrrrssssssstttssssssrqpoop...uwww.wwxxxyyy++zzzzyy....
(PID.TID 0000.0001)     26 ..............wxx...........ppqrrrrrrsssrrstsstttssrrrrrrrqppqqp.wwwvvwwwwwxyy+++zzyxw....
(PID.TID 0000.0001)     25 ..............wxxv...kkk...ooopqrrrrrssrrrrrrrssssqqpppppppppppoo...vvutuuvvwxyyyxxvvu....
(PID.TID 0000.0001)     24 ............uvvwwur.lmlk...nmm.pqqqqrrrrrqqqqrrqqrpppppooooonmmmnooo.uuuuuuttuvvvuvuut....
(PID.TID 0000.0001)     23 ............vvuvtqp.lmml...mln..ppppqpqppppppqpppppppppqppponnnnnoopm....xvuuuvvvvuuut....
(PID.TID 0000.0001)     22 r...........vuttsqqpnppn...mm.oppqqrrqqqqqqppppqqrrrqqqrrppppoopooomjj......uuvvvvvuttssrr
(PID.TID 0000.0001)     21 qmm........ttsssssssrsqon.....opqqqqqqqrrrrqqqssssssrrrrrrrrpqqqppomll........tvvvvuttssrr
(PID.TID 0000.0001)     20 sqq.......sttssrrsrrrrpol......p.qrqpqrrrrrrrstttttsssrrsssrqrrrrqqqpo.........wwwvvvuuutt
(PID.TID 0000.0001)     19 tsr.......ssssrrrrpppppnmmm...oqq.....qrqqsrrstttuuuttssttssrrssrrrrqq...........wwwvuvvvv
(PID.TID 0000.0001)     18 wut.......ssrrrrrqppppppppoooorrr...poqqqprrrttttuuutuuuuuutttttttutsss..........yyxwwxwxx
(PID.TID 0000.0001)     17 wwu.......s.rrrrrrqppppqqqqqqqr.....rrsrqrsssuusrtuuuvvvwwvvvuuuuutttss.........xyzyyyyxxx
(PID.TID 0000.0001)     16 vvt......ss.qrrssrqrqpqrrrrrrr.......ssrrstsstusrsuuuvwwwwxxwwvvvuttttsr........yz+zzzxwww
(PID.TID 0000.0001)     15 utss....stt.rrssstttsrrsrstsr.........ssstttssttsuuttuvvvvwxwwwwwuttsssrr......xyyyyxyyxwv
(PID.TID 0000.0001)     14 utts....sstrrssstuuuuuuuuuutt.........stttuutttttttuttttttuvvvvvvutsrqrrr.....vxxwwwwxwvwv
(PID.TID 0000.0001)     13 uuut....ttttttttuuuuuvtuuuuuu.........ttttuutttttttuutsssstttttstsqrqqppp....uwwwvuvvvutvv
(PID.TID 0000.0001)     12 ttttttttttttttttttttttssuuuuutuuut....tttttttttttsssssrrrrrrrqqqqqppppoo.....rvvuuttttttuu
(PID.TID 0000.0001)     11 rqsttttttttuuttttsssssrrstttttttsss..ttttts.tsssrrrrqqqqqppppoonnooooooo....oruttttsssrqrs
(PID.TID 0000.0001)     10 pppqrssrqqrqpqrssrrqqqqqqrrrrrrrrrrs.sssssr.rssrrqqpppppppooooonnnoooonn..moqrrrqqqqqqqqqq
(PID.TID 0000.0001)      9 oonooooooooonnnooooooooooppppppqqqqqrrrqrq.pppqqqqqppppppppppoooooooooll.lmoqqqqppooooopoo
(PID.TID 0000.0001)      8 nnnoonooooooonnnnnnnoooonoonoooppopqqqqqqqppopppqqqpppppppppppppppooopon.lnopppoooonnnnooo
(PID.TID 0000.0001)      7 ooooooooooopponnnooooooonnnnnonnooooooooopppppppoooooooooopppppppppoopqnnmnoooonnnonnnnnno
(PID.TID 0000.0001)      6 oooonnoonnnnooooooooooooonnnnnnnnnnnnnnnnoooopppooooooooooooooppppppppppoooooooonnnnnmnnnn
(PID.TID 0000.0001)      5 oooonnnnnnnnnnnnnnnnnoooooonnnnnnonnnnnnnnnoooooooooooonnnnnnooooooopoooonoooonnnnnnnooooo
(PID.TID 0000.0001)      4 oooonnnooonnnnnnnnnnnnnnoooooonnnooooonnnooooooooppponnnnmmmnnnnmnnoonnnnn..nnnooooooooooo
(PID.TID 0000.0001)      3 ooonnnnnnn............................nnoooooonnooooonnnnnnnoonnnnnnnnmmm..ooopooooooooooo
(PID.TID 0000.0001)      2 ..........................................pppooooonnnnnnoooppppo..nnnn.....qqqpppoooooo...
(PID.TID 0000.0001)      1 ..........................................................................................
(PID.TID 0000.0001) // =======================================================
(PID.TID 0000.0001) // END OF FIELD                                          =
(PID.TID 0000.0001) // =======================================================
(PID.TID 0000.0001) 
(PID.TID 0000.0001) Start initial hydrostatic pressure computation
(PID.TID 0000.0001) Pressure is predetermined for buoyancyRelation OCEANIC
(PID.TID 0000.0001) 
(PID.TID 0000.0001)  MDS_READ_FIELD: opening global file: trenberth_taux.bin
(PID.TID 0000.0001)  MDS_READ_FIELD: opening global file: trenberth_tauy.bin
(PID.TID 0000.0001)  MDS_READ_FIELD: opening global file: ncep_qnet.bin
(PID.TID 0000.0001)  MDS_READ_FIELD: opening global file: lev_sst.bin
(PID.TID 0000.0001)  MDS_READ_FIELD: opening global file: lev_sss.bin
(PID.TID 0000.0001) // =======================================================
(PID.TID 0000.0001) // Model current state
(PID.TID 0000.0001) // =======================================================
(PID.TID 0000.0001) 
(PID.TID 0000.0001) // =======================================================
(PID.TID 0000.0001) // Begin MONITOR dynamic field statistics
(PID.TID 0000.0001) // =======================================================
(PID.TID 0000.0001) %MON time_tsnumber                =                     0
(PID.TID 0000.0001) %MON time_secondsf                =   0.0000000000000E+00
(PID.TID 0000.0001) %MON dynstat_eta_max              =   0.0000000000000E+00
(PID.TID 0000.0001) %MON dynstat_eta_min              =   0.0000000000000E+00
(PID.TID 0000.0001) %MON dynstat_eta_mean             =   0.0000000000000E+00
(PID.TID 0000.0001) %MON dynstat_eta_sd               =   0.0000000000000E+00
(PID.TID 0000.0001) %MON dynstat_eta_del2             =   0.0000000000000E+00
(PID.TID 0000.0001) %MON dynstat_uvel_max             =   0.0000000000000E+00
(PID.TID 0000.0001) %MON dynstat_uvel_min             =   0.0000000000000E+00
(PID.TID 0000.0001) %MON dynstat_uvel_mean            =   0.0000000000000E+00
(PID.TID 0000.0001) %MON dynstat_uvel_sd              =   0.0000000000000E+00
(PID.TID 0000.0001) %MON dynstat_uvel_del2            =   0.0000000000000E+00
(PID.TID 0000.0001) %MON dynstat_vvel_max             =   0.0000000000000E+00
(PID.TID 0000.0001) %MON dynstat_vvel_min             =   0.0000000000000E+00
(PID.TID 0000.0001) %MON dynstat_vvel_mean            =   0.0000000000000E+00
(PID.TID 0000.0001) %MON dynstat_vvel_sd              =   0.0000000000000E+00
(PID.TID 0000.0001) %MON dynstat_vvel_del2            =   0.0000000000000E+00
(PID.TID 0000.0001) %MON dynstat_wvel_max             =   0.0000000000000E+00
(PID.TID 0000.0001) %MON dynstat_wvel_min             =   0.0000000000000E+00
(PID.TID 0000.0001) %MON dynstat_wvel_mean            =   0.0000000000000E+00
(PID.TID 0000.0001) %MON dynstat_wvel_sd              =   0.0000000000000E+00
(PID.TID 0000.0001) %MON dynstat_wvel_del2            =   0.0000000000000E+00
(PID.TID 0000.0001) %MON dynstat_theta_max            =   2.9733388900757E+01
(PID.TID 0000.0001) %MON dynstat_theta_min            =  -1.9000000000000E+00
(PID.TID 0000.0001) %MON dynstat_theta_mean           =   3.6197074666129E+00
(PID.TID 0000.0001) %MON dynstat_theta_sd             =   4.4174614518568E+00
(PID.TID 0000.0001) %MON dynstat_theta_del2           =   1.5097301766230E-01
(PID.TID 0000.0001) %MON dynstat_salt_max             =   3.7475627899170E+01
(PID.TID 0000.0001) %MON dynstat_salt_min             =   2.9752769470215E+01
(PID.TID 0000.0001) %MON dynstat_salt_mean            =   3.4718006161475E+01
(PID.TID 0000.0001) %MON dynstat_salt_sd              =   2.9628819587990E-01
(PID.TID 0000.0001) %MON dynstat_salt_del2            =   2.6251884861846E-02
(PID.TID 0000.0001) %MON dynstat_sst_max              =   2.9733388900757E+01
(PID.TID 0000.0001) %MON dynstat_sst_min              =  -1.9000000000000E+00
(PID.TID 0000.0001) %MON dynstat_sst_mean             =   1.8484768169451E+01
(PID.TID 0000.0001) %MON dynstat_sst_sd               =   9.1795873467430E+00
(PID.TID 0000.0001) %MON dynstat_sst_del2             =   2.8475713994204E-01
(PID.TID 0000.0001) %MON dynstat_sss_max              =   3.7475627899170E+01
(PID.TID 0000.0001) %MON dynstat_sss_min              =   2.9752769470215E+01
(PID.TID 0000.0001) %MON dynstat_sss_mean             =   3.4849925275207E+01
(PID.TID 0000.0001) %MON dynstat_sss_sd               =   9.6344930396289E-01
(PID.TID 0000.0001) %MON dynstat_sss_del2             =   8.4229940575091E-02
(PID.TID 0000.0001) %MON extforcing_qnet_max          =   4.4161361694336E+02
(PID.TID 0000.0001) %MON extforcing_qnet_min          =  -1.8132531738281E+02
(PID.TID 0000.0001) %MON extforcing_qnet_mean         =  -1.6512526001044E+01
(PID.TID 0000.0001) %MON extforcing_qnet_sd           =   1.0987288293460E+02
(PID.TID 0000.0001) %MON extforcing_qnet_del2         =   9.6689454498868E+00
(PID.TID 0000.0001) %MON extforcing_qsw_max           =   0.0000000000000E+00
(PID.TID 0000.0001) %MON extforcing_qsw_min           =   0.0000000000000E+00
(PID.TID 0000.0001) %MON extforcing_qsw_mean          =   0.0000000000000E+00
(PID.TID 0000.0001) %MON extforcing_qsw_sd            =   0.0000000000000E+00
(PID.TID 0000.0001) %MON extforcing_qsw_del2          =   0.0000000000000E+00
(PID.TID 0000.0001) %MON extforcing_empmr_max         =   0.0000000000000E+00
(PID.TID 0000.0001) %MON extforcing_empmr_min         =   0.0000000000000E+00
(PID.TID 0000.0001) %MON extforcing_empmr_mean        =   0.0000000000000E+00
(PID.TID 0000.0001) %MON extforcing_empmr_sd          =   0.0000000000000E+00
(PID.TID 0000.0001) %MON extforcing_empmr_del2        =   0.0000000000000E+00
(PID.TID 0000.0001) %MON extforcing_fu_max            =   2.7877888083458E-01
(PID.TID 0000.0001) %MON extforcing_fu_min            =  -1.7088057100773E-01
(PID.TID 0000.0001) %MON extforcing_fu_mean           =   1.6001735152566E-02
(PID.TID 0000.0001) %MON extforcing_fu_sd             =   9.1062350670783E-02
(PID.TID 0000.0001) %MON extforcing_fu_del2           =   7.6925174727079E-03
(PID.TID 0000.0001) %MON extforcing_fv_max            =   2.3312132060528E-01
(PID.TID 0000.0001) %MON extforcing_fv_min            =  -1.7813690006733E-01
(PID.TID 0000.0001) %MON extforcing_fv_mean           =  -5.2588977395051E-03
(PID.TID 0000.0001) %MON extforcing_fv_sd             =   4.8248606070107E-02
(PID.TID 0000.0001) %MON extforcing_fv_del2           =   4.8562771937866E-03
(PID.TID 0000.0001) %MON advcfl_uvel_max              =   0.0000000000000E+00
(PID.TID 0000.0001) %MON advcfl_vvel_max              =   0.0000000000000E+00
(PID.TID 0000.0001) %MON advcfl_wvel_max              =   0.0000000000000E+00
(PID.TID 0000.0001) %MON advcfl_W_hf_max              =   0.0000000000000E+00
(PID.TID 0000.0001) %MON pe_b_mean                    =   0.0000000000000E+00
(PID.TID 0000.0001) %MON ke_max                       =   0.0000000000000E+00
(PID.TID 0000.0001) %MON ke_mean                      =   0.0000000000000E+00
(PID.TID 0000.0001) %MON ke_vol                       =   1.3226782436723E+18
(PID.TID 0000.0001) %MON vort_r_min                   =   0.0000000000000E+00
(PID.TID 0000.0001) %MON vort_r_max                   =   0.0000000000000E+00
(PID.TID 0000.0001) %MON vort_a_mean                  =  -2.5274807396949E-05
(PID.TID 0000.0001) %MON vort_a_sd                    =   7.3604350271441E-05
(PID.TID 0000.0001) %MON vort_p_mean                  =  -3.1845655798840E-05
(PID.TID 0000.0001) %MON vort_p_sd                    =   1.3162570071703E-04
(PID.TID 0000.0001) %MON surfExpan_theta_mean         =   0.0000000000000E+00
(PID.TID 0000.0001) %MON surfExpan_salt_mean          =   0.0000000000000E+00
(PID.TID 0000.0001) // =======================================================
(PID.TID 0000.0001) // End MONITOR dynamic field statistics
(PID.TID 0000.0001) // =======================================================
S/R EXTERNAL_FIELDS_LOAD: Reading new data:   12    1         0  0.000000000000E+00
(PID.TID 0000.0001)  MDS_READ_FIELD: opening global file: trenberth_taux.bin
(PID.TID 0000.0001)  MDS_READ_FIELD: opening global file: trenberth_taux.bin
(PID.TID 0000.0001)  MDS_READ_FIELD: opening global file: trenberth_tauy.bin
(PID.TID 0000.0001)  MDS_READ_FIELD: opening global file: trenberth_tauy.bin
(PID.TID 0000.0001)  MDS_READ_FIELD: opening global file: ncep_qnet.bin
(PID.TID 0000.0001)  MDS_READ_FIELD: opening global file: ncep_qnet.bin
(PID.TID 0000.0001)  MDS_READ_FIELD: opening global file: lev_sst.bin
(PID.TID 0000.0001)  MDS_READ_FIELD: opening global file: lev_sst.bin
(PID.TID 0000.0001)  MDS_READ_FIELD: opening global file: lev_sss.bin
(PID.TID 0000.0001)  MDS_READ_FIELD: opening global file: lev_sss.bin
time,SST,SSS,fu,fv,Q,E-P,i0,i1,a,b =   0.0000E+00  5.3151E-02  3.4364E+01 -4.0500E-02 -6.3753E-02  2.6510E+02  0.0000E+00    12     1  5.0000E-01  5.0000E-01
time,fu0,fu1,fu =   0.0000E+00 -4.5368E-02 -3.5633E-02 -4.0500E-02  5.000000000000000E-01  5.000000000000000E-01
(PID.TID 0000.0001)  MDS_READ_FIELD: opening file: xx_hfluxm.0000000000.001.001.data
 cg2d: Sum(rhs),rhsMax =   1.47867829092263E-14  2.54952604282385E+00
(PID.TID 0000.0001)                    cg2d_init_res =    6.15811885707762E+00
(PID.TID 0000.0001)                       cg2d_iters =   184
(PID.TID 0000.0001)                         cg2d_res =    7.57915667819128E-20
(PID.TID 0000.0001) // =======================================================
(PID.TID 0000.0001) // Begin MONITOR dynamic field statistics
(PID.TID 0000.0001) // =======================================================
(PID.TID 0000.0001) %MON time_tsnumber                =                     1
(PID.TID 0000.0001) %MON time_secondsf                =   8.6400000000000E+04
(PID.TID 0000.0001) %MON dynstat_eta_max              =   6.5972348670447E-01
(PID.TID 0000.0001) %MON dynstat_eta_min              =  -8.0908516975815E-01
(PID.TID 0000.0001) %MON dynstat_eta_mean             =  -2.7153157199667E-17
(PID.TID 0000.0001) %MON dynstat_eta_sd               =   2.5986233252826E-01
(PID.TID 0000.0001) %MON dynstat_eta_del2             =   2.5279734204494E-02
(PID.TID 0000.0001) %MON dynstat_uvel_max             =   1.5154475259840E-02
(PID.TID 0000.0001) %MON dynstat_uvel_min             =  -1.6711313941993E-02
(PID.TID 0000.0001) %MON dynstat_uvel_mean            =  -5.1438984368886E-04
(PID.TID 0000.0001) %MON dynstat_uvel_sd              =   1.2645121070782E-03
(PID.TID 0000.0001) %MON dynstat_uvel_del2            =   5.5987941427477E-04
(PID.TID 0000.0001) %MON dynstat_vvel_max             =   1.8058285555769E-02
(PID.TID 0000.0001) %MON dynstat_vvel_min             =  -2.1372750497760E-02
(PID.TID 0000.0001) %MON dynstat_vvel_mean            =   7.2942825208710E-04
(PID.TID 0000.0001) %MON dynstat_vvel_sd              =   2.4742343056406E-03
(PID.TID 0000.0001) %MON dynstat_vvel_del2            =   6.3979493995627E-04
(PID.TID 0000.0001) %MON dynstat_wvel_max             =   6.2722463559607E-05
(PID.TID 0000.0001) %MON dynstat_wvel_min             =  -5.6747548601663E-05
(PID.TID 0000.0001) %MON dynstat_wvel_mean            =   6.5057714643047E-23
(PID.TID 0000.0001) %MON dynstat_wvel_sd              =   7.1431501853860E-06
(PID.TID 0000.0001) %MON dynstat_wvel_del2            =   2.9250853968744E-06
(PID.TID 0000.0001) %MON dynstat_theta_max            =   2.9751666093989E+01
(PID.TID 0000.0001) %MON dynstat_theta_min            =  -1.9081160967564E+00
(PID.TID 0000.0001) %MON dynstat_theta_mean           =   3.6197985269664E+00
(PID.TID 0000.0001) %MON dynstat_theta_sd             =   4.4172678280012E+00
(PID.TID 0000.0001) %MON dynstat_theta_del2           =   1.5185103559362E-01
(PID.TID 0000.0001) %MON dynstat_salt_max             =   3.7466326609724E+01
(PID.TID 0000.0001) %MON dynstat_salt_min             =   2.9755612723569E+01
(PID.TID 0000.0001) %MON dynstat_salt_mean            =   3.4718005931610E+01
(PID.TID 0000.0001) %MON dynstat_salt_sd              =   2.9614519425398E-01
(PID.TID 0000.0001) %MON dynstat_salt_del2            =   2.6412127805909E-02
(PID.TID 0000.0001) %MON dynstat_sst_max              =   2.9751666093989E+01
(PID.TID 0000.0001) %MON dynstat_sst_min              =  -1.9081160967564E+00
(PID.TID 0000.0001) %MON dynstat_sst_mean             =   1.8490143764229E+01
(PID.TID 0000.0001) %MON dynstat_sst_sd               =   9.1742955567634E+00
(PID.TID 0000.0001) %MON dynstat_sst_del2             =   2.8384004675997E-01
(PID.TID 0000.0001) %MON dynstat_sss_max              =   3.7466326609724E+01
(PID.TID 0000.0001) %MON dynstat_sss_min              =   2.9755612723569E+01
(PID.TID 0000.0001) %MON dynstat_sss_mean             =   3.4849516579569E+01
(PID.TID 0000.0001) %MON dynstat_sss_sd               =   9.6283309739578E-01
(PID.TID 0000.0001) %MON dynstat_sss_del2             =   8.3731481258393E-02
(PID.TID 0000.0001) %MON extforcing_qnet_max          =   4.2589080810547E+02
(PID.TID 0000.0001) %MON extforcing_qnet_min          =  -1.8702698516846E+02
(PID.TID 0000.0001) %MON extforcing_qnet_mean         =  -1.6700205338390E+01
(PID.TID 0000.0001) %MON extforcing_qnet_sd           =   1.1285666794876E+02
(PID.TID 0000.0001) %MON extforcing_qnet_del2         =   9.4920800031777E+00
(PID.TID 0000.0001) %MON extforcing_qsw_max           =   0.0000000000000E+00
(PID.TID 0000.0001) %MON extforcing_qsw_min           =   0.0000000000000E+00
(PID.TID 0000.0001) %MON extforcing_qsw_mean          =   0.0000000000000E+00
(PID.TID 0000.0001) %MON extforcing_qsw_sd            =   0.0000000000000E+00
(PID.TID 0000.0001) %MON extforcing_qsw_del2          =   0.0000000000000E+00
(PID.TID 0000.0001) %MON extforcing_empmr_max         =   0.0000000000000E+00
(PID.TID 0000.0001) %MON extforcing_empmr_min         =   0.0000000000000E+00
(PID.TID 0000.0001) %MON extforcing_empmr_mean        =   0.0000000000000E+00
(PID.TID 0000.0001) %MON extforcing_empmr_sd          =   0.0000000000000E+00
(PID.TID 0000.0001) %MON extforcing_empmr_del2        =   0.0000000000000E+00
(PID.TID 0000.0001) %MON extforcing_fu_max            =   2.7488999068737E-01
(PID.TID 0000.0001) %MON extforcing_fu_min            =  -1.6014087945223E-01
(PID.TID 0000.0001) %MON extforcing_fu_mean           =   1.6117127468124E-02
(PID.TID 0000.0001) %MON extforcing_fu_sd             =   9.0153154829689E-02
(PID.TID 0000.0001) %MON extforcing_fu_del2           =   7.3708273804392E-03
(PID.TID 0000.0001) %MON extforcing_fv_max            =   2.0835298299789E-01
(PID.TID 0000.0001) %MON extforcing_fv_min            =  -1.8690676242113E-01
(PID.TID 0000.0001) %MON extforcing_fv_mean           =  -6.3653356424171E-03
(PID.TID 0000.0001) %MON extforcing_fv_sd             =   4.5157892194461E-02
(PID.TID 0000.0001) %MON extforcing_fv_del2           =   4.3354963669297E-03
(PID.TID 0000.0001) %MON advcfl_uvel_max              =   6.2569565162094E-03
(PID.TID 0000.0001) %MON advcfl_vvel_max              =   4.1523826440075E-03
(PID.TID 0000.0001) %MON advcfl_wvel_max              =   3.2363406790326E-02
(PID.TID 0000.0001) %MON advcfl_W_hf_max              =   4.5002912061709E-02
(PID.TID 0000.0001) %MON pe_b_mean                    =   8.6410767966917E-05
(PID.TID 0000.0001) %MON ke_max                       =   1.9819958904707E-04
(PID.TID 0000.0001) %MON ke_mean                      =   3.8338839950845E-06
(PID.TID 0000.0001) %MON ke_vol                       =   1.3226782436723E+18
(PID.TID 0000.0001) %MON vort_r_min                   =  -8.7815117231286E-08
(PID.TID 0000.0001) %MON vort_r_max                   =   6.7517135819958E-08
(PID.TID 0000.0001) %MON vort_a_mean                  =  -2.5274807339432E-05
(PID.TID 0000.0001) %MON vort_a_sd                    =   7.3604247005210E-05
(PID.TID 0000.0001) %MON vort_p_mean                  =  -3.1845655726370E-05
(PID.TID 0000.0001) %MON vort_p_sd                    =   1.3162541790063E-04
(PID.TID 0000.0001) %MON surfExpan_theta_mean         =   2.1615117376547E-05
(PID.TID 0000.0001) %MON surfExpan_salt_mean          =   1.4995815232063E-06
(PID.TID 0000.0001) // =======================================================
(PID.TID 0000.0001) // End MONITOR dynamic field statistics
(PID.TID 0000.0001) // =======================================================
time,SST,SSS,fu,fv,Q,E-P,i0,i1,a,b =   8.6400E+04  1.1350E-01  3.4387E+01 -4.0176E-02 -6.3320E-02  2.6514E+02  0.0000E+00    12     1  5.3333E-01  4.6667E-01
time,fu0,fu1,fu =   8.6400E+04 -4.5368E-02 -3.5633E-02 -4.0176E-02  5.333333333333333E-01  4.666666666666667E-01
 cg2d: Sum(rhs),rhsMax =   1.11299858218672E-14  2.62443215722193E+00
(PID.TID 0000.0001)                    cg2d_init_res =    5.65211526467679E-01
(PID.TID 0000.0001)                       cg2d_iters =   181
(PID.TID 0000.0001)                         cg2d_res =    9.10072490989903E-20
(PID.TID 0000.0001) // =======================================================
(PID.TID 0000.0001) // Begin MONITOR dynamic field statistics
(PID.TID 0000.0001) // =======================================================
(PID.TID 0000.0001) %MON time_tsnumber                =                     2
(PID.TID 0000.0001) %MON time_secondsf                =   1.7280000000000E+05
(PID.TID 0000.0001) %MON dynstat_eta_max              =   8.9917176839648E-01
(PID.TID 0000.0001) %MON dynstat_eta_min              =  -1.3164604027299E+00
(PID.TID 0000.0001) %MON dynstat_eta_mean             =   2.3139704415741E-16
(PID.TID 0000.0001) %MON dynstat_eta_sd               =   4.4131045416725E-01
(PID.TID 0000.0001) %MON dynstat_eta_del2             =   2.5861520320032E-02
(PID.TID 0000.0001) %MON dynstat_uvel_max             =   3.1916634593651E-02
(PID.TID 0000.0001) %MON dynstat_uvel_min             =  -3.2935814784973E-02
(PID.TID 0000.0001) %MON dynstat_uvel_mean            =  -8.4207078924935E-04
(PID.TID 0000.0001) %MON dynstat_uvel_sd              =   2.3995027273684E-03
(PID.TID 0000.0001) %MON dynstat_uvel_del2            =   1.0339715228866E-03
(PID.TID 0000.0001) %MON dynstat_vvel_max             =   3.5896279709003E-02
(PID.TID 0000.0001) %MON dynstat_vvel_min             =  -4.3465559683010E-02
(PID.TID 0000.0001) %MON dynstat_vvel_mean            =   9.2214608421787E-04
(PID.TID 0000.0001) %MON dynstat_vvel_sd              =   4.2145196314093E-03
(PID.TID 0000.0001) %MON dynstat_vvel_del2            =   1.2102096843289E-03
(PID.TID 0000.0001) %MON dynstat_wvel_max             =   1.0735117900407E-04
(PID.TID 0000.0001) %MON dynstat_wvel_min             =  -9.7633782506253E-05
(PID.TID 0000.0001) %MON dynstat_wvel_mean            =   1.6421403226744E-22
(PID.TID 0000.0001) %MON dynstat_wvel_sd              =   1.2021948928985E-05
(PID.TID 0000.0001) %MON dynstat_wvel_del2            =   5.0952967478425E-06
(PID.TID 0000.0001) %MON dynstat_theta_max            =   2.9755444679809E+01
(PID.TID 0000.0001) %MON dynstat_theta_min            =  -1.9082276088968E+00
(PID.TID 0000.0001) %MON dynstat_theta_mean           =   3.6191100315846E+00
(PID.TID 0000.0001) %MON dynstat_theta_sd             =   4.4154696499058E+00
(PID.TID 0000.0001) %MON dynstat_theta_del2           =   1.5128054588425E-01
(PID.TID 0000.0001) %MON dynstat_salt_max             =   3.7457095125254E+01
(PID.TID 0000.0001) %MON dynstat_salt_min             =   2.9758681851086E+01
(PID.TID 0000.0001) %MON dynstat_salt_mean            =   3.4717951692491E+01
(PID.TID 0000.0001) %MON dynstat_salt_sd              =   2.9605725116868E-01
(PID.TID 0000.0001) %MON dynstat_salt_del2            =   2.6506856568197E-02
(PID.TID 0000.0001) %MON dynstat_sst_max              =   2.9755444679809E+01
(PID.TID 0000.0001) %MON dynstat_sst_min              =  -1.9082276088968E+00
(PID.TID 0000.0001) %MON dynstat_sst_mean             =   1.8496536422655E+01
(PID.TID 0000.0001) %MON dynstat_sst_sd               =   9.1609525806831E+00
(PID.TID 0000.0001) %MON dynstat_sst_del2             =   2.8216471269729E-01
(PID.TID 0000.0001) %MON dynstat_sss_max              =   3.7457095125254E+01
(PID.TID 0000.0001) %MON dynstat_sss_min              =   2.9758681851086E+01
(PID.TID 0000.0001) %MON dynstat_sss_mean             =   3.4849533580992E+01
(PID.TID 0000.0001) %MON dynstat_sss_sd               =   9.6278093014584E-01
(PID.TID 0000.0001) %MON dynstat_sss_del2             =   8.3522931668971E-02
(PID.TID 0000.0001) %MON extforcing_qnet_max          =   4.2693899536133E+02
(PID.TID 0000.0001) %MON extforcing_qnet_min          =  -1.8655982259115E+02
(PID.TID 0000.0001) %MON extforcing_qnet_mean         =  -1.6687693382567E+01
(PID.TID 0000.0001) %MON extforcing_qnet_sd           =   1.1263946608433E+02
(PID.TID 0000.0001) %MON extforcing_qnet_del2         =   9.4914987500819E+00
(PID.TID 0000.0001) %MON extforcing_qsw_max           =   0.0000000000000E+00
(PID.TID 0000.0001) %MON extforcing_qsw_min           =   0.0000000000000E+00
(PID.TID 0000.0001) %MON extforcing_qsw_mean          =   0.0000000000000E+00
(PID.TID 0000.0001) %MON extforcing_qsw_sd            =   0.0000000000000E+00
(PID.TID 0000.0001) %MON extforcing_qsw_del2          =   0.0000000000000E+00
(PID.TID 0000.0001) %MON extforcing_empmr_max         =   0.0000000000000E+00
(PID.TID 0000.0001) %MON extforcing_empmr_min         =   0.0000000000000E+00
(PID.TID 0000.0001) %MON extforcing_empmr_mean        =   0.0000000000000E+00
(PID.TID 0000.0001) %MON extforcing_empmr_sd          =   0.0000000000000E+00
(PID.TID 0000.0001) %MON extforcing_empmr_del2        =   0.0000000000000E+00
(PID.TID 0000.0001) %MON extforcing_fu_max            =   2.7403144240379E-01
(PID.TID 0000.0001) %MON extforcing_fu_min            =  -1.5949268937111E-01
(PID.TID 0000.0001) %MON extforcing_fu_mean           =   1.6109434647086E-02
(PID.TID 0000.0001) %MON extforcing_fu_sd             =   9.0138031840955E-02
(PID.TID 0000.0001) %MON extforcing_fu_del2           =   7.3647677160333E-03
(PID.TID 0000.0001) %MON extforcing_fv_max            =   2.0882657567660E-01
(PID.TID 0000.0001) %MON extforcing_fv_min            =  -1.8632210493088E-01
(PID.TID 0000.0001) %MON extforcing_fv_mean           =  -6.2915731155564E-03
(PID.TID 0000.0001) %MON extforcing_fv_sd             =   4.5261152700224E-02
(PID.TID 0000.0001) %MON extforcing_fv_del2           =   4.3343836405753E-03
(PID.TID 0000.0001) %MON advcfl_uvel_max              =   1.0979527063589E-02
(PID.TID 0000.0001) %MON advcfl_vvel_max              =   8.4446611426415E-03
(PID.TID 0000.0001) %MON advcfl_wvel_max              =   3.3472802411486E-02
(PID.TID 0000.0001) %MON advcfl_W_hf_max              =   4.4278187945691E-02
(PID.TID 0000.0001) %MON pe_b_mean                    =   2.4921239060832E-04
(PID.TID 0000.0001) %MON ke_max                       =   9.0737860405372E-04
(PID.TID 0000.0001) %MON ke_mean                      =   1.1293898428778E-05
(PID.TID 0000.0001) %MON ke_vol                       =   1.3226782436723E+18
(PID.TID 0000.0001) %MON vort_r_min                   =  -1.7904769298624E-07
(PID.TID 0000.0001) %MON vort_r_max                   =   1.4657061662399E-07
(PID.TID 0000.0001) %MON vort_a_mean                  =  -2.5274807287623E-05
(PID.TID 0000.0001) %MON vort_a_sd                    =   7.3604184445156E-05
(PID.TID 0000.0001) %MON vort_p_mean                  =  -3.1845655661091E-05
(PID.TID 0000.0001) %MON vort_p_sd                    =   1.3162516013305E-04
(PID.TID 0000.0001) %MON surfExpan_theta_mean         =   1.9340011667872E-05
(PID.TID 0000.0001) %MON surfExpan_salt_mean          =   1.1418930241234E-06
(PID.TID 0000.0001) // =======================================================
(PID.TID 0000.0001) // End MONITOR dynamic field statistics
(PID.TID 0000.0001) // =======================================================
time,SST,SSS,fu,fv,Q,E-P,i0,i1,a,b =   1.7280E+05  1.7385E-01  3.4410E+01 -3.9851E-02 -6.2886E-02  2.6519E+02  0.0000E+00    12     1  5.6667E-01  4.3333E-01
time,fu0,fu1,fu =   1.7280E+05 -4.5368E-02 -3.5633E-02 -3.9851E-02  5.666666666666667E-01  4.333333333333333E-01
 cg2d: Sum(rhs),rhsMax =  -4.06480404890885E-14  2.39923446840278E+00
(PID.TID 0000.0001)                    cg2d_init_res =    5.04355141030421E-01
(PID.TID 0000.0001)                       cg2d_iters =   181
(PID.TID 0000.0001)                         cg2d_res =    7.61076261157407E-20
(PID.TID 0000.0001) // =======================================================
(PID.TID 0000.0001) // Begin MONITOR dynamic field statistics
(PID.TID 0000.0001) // =======================================================
(PID.TID 0000.0001) %MON time_tsnumber                =                     3
(PID.TID 0000.0001) %MON time_secondsf                =   2.5920000000000E+05
(PID.TID 0000.0001) %MON dynstat_eta_max              =   8.9024394315371E-01
(PID.TID 0000.0001) %MON dynstat_eta_min              =  -1.5835877364695E+00
(PID.TID 0000.0001) %MON dynstat_eta_mean             =  -1.2722061614415E-16
(PID.TID 0000.0001) %MON dynstat_eta_sd               =   5.2942069728182E-01
(PID.TID 0000.0001) %MON dynstat_eta_del2             =   2.4608942868829E-02
(PID.TID 0000.0001) %MON dynstat_uvel_max             =   5.1307027923247E-02
(PID.TID 0000.0001) %MON dynstat_uvel_min             =  -4.7489633592032E-02
(PID.TID 0000.0001) %MON dynstat_uvel_mean            =  -9.3487692475344E-04
(PID.TID 0000.0001) %MON dynstat_uvel_sd              =   3.5366874973913E-03
(PID.TID 0000.0001) %MON dynstat_uvel_del2            =   1.4404686815864E-03
(PID.TID 0000.0001) %MON dynstat_vvel_max             =   5.1453193804222E-02
(PID.TID 0000.0001) %MON dynstat_vvel_min             =  -6.3855753867600E-02
(PID.TID 0000.0001) %MON dynstat_vvel_mean            =   8.1131907087332E-04
(PID.TID 0000.0001) %MON dynstat_vvel_sd              =   5.8838667228437E-03
(PID.TID 0000.0001) %MON dynstat_vvel_del2            =   1.7146761311996E-03
(PID.TID 0000.0001) %MON dynstat_wvel_max             =   1.4898197111192E-04
(PID.TID 0000.0001) %MON dynstat_wvel_min             =  -1.3134867908550E-04
(PID.TID 0000.0001) %MON dynstat_wvel_mean            =   1.8299363787812E-23
(PID.TID 0000.0001) %MON dynstat_wvel_sd              =   1.6480212792786E-05
(PID.TID 0000.0001) %MON dynstat_wvel_del2            =   7.0167655290310E-06
(PID.TID 0000.0001) %MON dynstat_theta_max            =   2.9757803039549E+01
(PID.TID 0000.0001) %MON dynstat_theta_min            =  -1.9086094879462E+00
(PID.TID 0000.0001) %MON dynstat_theta_mean           =   3.6187958419151E+00
(PID.TID 0000.0001) %MON dynstat_theta_sd             =   4.4144319741980E+00
(PID.TID 0000.0001) %MON dynstat_theta_del2           =   1.4998173667609E-01
(PID.TID 0000.0001) %MON dynstat_salt_max             =   3.7449064079407E+01
(PID.TID 0000.0001) %MON dynstat_salt_min             =   2.9759914492290E+01
(PID.TID 0000.0001) %MON dynstat_salt_mean            =   3.4717930629128E+01
(PID.TID 0000.0001) %MON dynstat_salt_sd              =   2.9602201048652E-01
(PID.TID 0000.0001) %MON dynstat_salt_del2            =   2.6424992944774E-02
(PID.TID 0000.0001) %MON dynstat_sst_max              =   2.9757803039549E+01
(PID.TID 0000.0001) %MON dynstat_sst_min              =  -1.9086094879462E+00
(PID.TID 0000.0001) %MON dynstat_sst_mean             =   1.8505759095271E+01
(PID.TID 0000.0001) %MON dynstat_sst_sd               =   9.1480754449888E+00
(PID.TID 0000.0001) %MON dynstat_sst_del2             =   2.8086124228290E-01
(PID.TID 0000.0001) %MON dynstat_sss_max              =   3.7449064079407E+01
(PID.TID 0000.0001) %MON dynstat_sss_min              =   2.9759914492290E+01
(PID.TID 0000.0001) %MON dynstat_sss_mean             =   3.4849988124748E+01
(PID.TID 0000.0001) %MON dynstat_sss_sd               =   9.6249512501408E-01
(PID.TID 0000.0001) %MON dynstat_sss_del2             =   8.3179092885995E-02
(PID.TID 0000.0001) %MON extforcing_qnet_max          =   4.2798718261719E+02
(PID.TID 0000.0001) %MON extforcing_qnet_min          =  -1.8609266001383E+02
(PID.TID 0000.0001) %MON extforcing_qnet_mean         =  -1.6675181426744E+01
(PID.TID 0000.0001) %MON extforcing_qnet_sd           =   1.1242481361476E+02
(PID.TID 0000.0001) %MON extforcing_qnet_del2         =   9.4925698128427E+00
(PID.TID 0000.0001) %MON extforcing_qsw_max           =   0.0000000000000E+00
(PID.TID 0000.0001) %MON extforcing_qsw_min           =   0.0000000000000E+00
(PID.TID 0000.0001) %MON extforcing_qsw_mean          =   0.0000000000000E+00
(PID.TID 0000.0001) %MON extforcing_qsw_sd            =   0.0000000000000E+00
(PID.TID 0000.0001) %MON extforcing_qsw_del2          =   0.0000000000000E+00
(PID.TID 0000.0001) %MON extforcing_empmr_max         =   0.0000000000000E+00
(PID.TID 0000.0001) %MON extforcing_empmr_min         =   0.0000000000000E+00
(PID.TID 0000.0001) %MON extforcing_empmr_mean        =   0.0000000000000E+00
(PID.TID 0000.0001) %MON extforcing_empmr_sd          =   0.0000000000000E+00
(PID.TID 0000.0001) %MON extforcing_empmr_del2        =   0.0000000000000E+00
(PID.TID 0000.0001) %MON extforcing_fu_max            =   2.7317289412022E-01
(PID.TID 0000.0001) %MON extforcing_fu_min            =  -1.6030610948801E-01
(PID.TID 0000.0001) %MON extforcing_fu_mean           =   1.6101741826049E-02
(PID.TID 0000.0001) %MON extforcing_fu_sd             =   9.0133772222350E-02
(PID.TID 0000.0001) %MON extforcing_fu_del2           =   7.3624077517240E-03
(PID.TID 0000.0001) %MON extforcing_fv_max            =   2.0930016835531E-01
(PID.TID 0000.0001) %MON extforcing_fv_min            =  -1.8573744744062E-01
(PID.TID 0000.0001) %MON extforcing_fv_mean           =  -6.2178105886955E-03
(PID.TID 0000.0001) %MON extforcing_fv_sd             =   4.5379778517573E-02
(PID.TID 0000.0001) %MON extforcing_fv_del2           =   4.3389629098033E-03
(PID.TID 0000.0001) %MON advcfl_uvel_max              =   1.6782987851526E-02
(PID.TID 0000.0001) %MON advcfl_vvel_max              =   1.2406148853309E-02
(PID.TID 0000.0001) %MON advcfl_wvel_max              =   4.6820545687811E-02
(PID.TID 0000.0001) %MON advcfl_W_hf_max              =   6.1008589835633E-02
(PID.TID 0000.0001) %MON pe_b_mean                    =   3.5866007219005E-04
(PID.TID 0000.0001) %MON ke_max                       =   2.1519004992311E-03
(PID.TID 0000.0001) %MON ke_mean                      =   2.1917612279687E-05
(PID.TID 0000.0001) %MON ke_vol                       =   1.3226782436723E+18
(PID.TID 0000.0001) %MON vort_r_min                   =  -2.4558239368695E-07
(PID.TID 0000.0001) %MON vort_r_max                   =   2.0671460769412E-07
(PID.TID 0000.0001) %MON vort_a_mean                  =  -2.5274807204943E-05
(PID.TID 0000.0001) %MON vort_a_sd                    =   7.3604167620338E-05
(PID.TID 0000.0001) %MON vort_p_mean                  =  -3.1845655556916E-05
(PID.TID 0000.0001) %MON vort_p_sd                    =   1.3162500011798E-04
(PID.TID 0000.0001) %MON surfExpan_theta_mean         =   1.0509344991698E-05
(PID.TID 0000.0001) %MON surfExpan_salt_mean          =   4.3308468473856E-07
(PID.TID 0000.0001) // =======================================================
(PID.TID 0000.0001) // End MONITOR dynamic field statistics
(PID.TID 0000.0001) // =======================================================
time,SST,SSS,fu,fv,Q,E-P,i0,i1,a,b =   2.5920E+05  2.3421E-01  3.4434E+01 -3.9527E-02 -6.2453E-02  2.6523E+02  0.0000E+00    12     1  6.0000E-01  4.0000E-01
time,fu0,fu1,fu =   2.5920E+05 -4.5368E-02 -3.5633E-02 -3.9527E-02  6.000000000000000E-01  4.000000000000000E-01
 cg2d: Sum(rhs),rhsMax =  -1.38500322321988E-14  2.21574359151329E+00
(PID.TID 0000.0001)                    cg2d_init_res =    4.23689952061595E-01
(PID.TID 0000.0001)                       cg2d_iters =   179
(PID.TID 0000.0001)                         cg2d_res =    8.49510607696681E-20
(PID.TID 0000.0001) // =======================================================
(PID.TID 0000.0001) // Begin MONITOR dynamic field statistics
(PID.TID 0000.0001) // =======================================================
(PID.TID 0000.0001) %MON time_tsnumber                =                     4
(PID.TID 0000.0001) %MON time_secondsf                =   3.4560000000000E+05
(PID.TID 0000.0001) %MON dynstat_eta_max              =   8.7040758787287E-01
(PID.TID 0000.0001) %MON dynstat_eta_min              =  -1.6017051893096E+00
(PID.TID 0000.0001) %MON dynstat_eta_mean             =  -9.8813365500762E-17
(PID.TID 0000.0001) %MON dynstat_eta_sd               =   5.5675037085583E-01
(PID.TID 0000.0001) %MON dynstat_eta_del2             =   2.3690918763627E-02
(PID.TID 0000.0001) %MON dynstat_uvel_max             =   7.2501510993112E-02
(PID.TID 0000.0001) %MON dynstat_uvel_min             =  -6.0532836935695E-02
(PID.TID 0000.0001) %MON dynstat_uvel_mean            =  -8.6920983521480E-04
(PID.TID 0000.0001) %MON dynstat_uvel_sd              =   4.7627728847420E-03
(PID.TID 0000.0001) %MON dynstat_uvel_del2            =   1.7893602525106E-03
(PID.TID 0000.0001) %MON dynstat_vvel_max             =   6.4242554034175E-02
(PID.TID 0000.0001) %MON dynstat_vvel_min             =  -8.1532287595483E-02
(PID.TID 0000.0001) %MON dynstat_vvel_mean            =   5.5579072198170E-04
(PID.TID 0000.0001) %MON dynstat_vvel_sd              =   7.4393348872399E-03
(PID.TID 0000.0001) %MON dynstat_vvel_del2            =   2.1555993236032E-03
(PID.TID 0000.0001) %MON dynstat_wvel_max             =   1.8461177028920E-04
(PID.TID 0000.0001) %MON dynstat_wvel_min             =  -1.5773174955170E-04
(PID.TID 0000.0001) %MON dynstat_wvel_mean            =   1.8171777154274E-23
(PID.TID 0000.0001) %MON dynstat_wvel_sd              =   2.0323507212368E-05
(PID.TID 0000.0001) %MON dynstat_wvel_del2            =   8.5606596614507E-06
(PID.TID 0000.0001) %MON dynstat_theta_max            =   2.9763466125768E+01
(PID.TID 0000.0001) %MON dynstat_theta_min            =  -1.9089540901452E+00
(PID.TID 0000.0001) %MON dynstat_theta_mean           =   3.6187692902807E+00
(PID.TID 0000.0001) %MON dynstat_theta_sd             =   4.4140958558898E+00
(PID.TID 0000.0001) %MON dynstat_theta_del2           =   1.4848569781534E-01
(PID.TID 0000.0001) %MON dynstat_salt_max             =   3.7442197557573E+01
(PID.TID 0000.0001) %MON dynstat_salt_min             =   2.9759537372974E+01
(PID.TID 0000.0001) %MON dynstat_salt_mean            =   3.4717930254307E+01
(PID.TID 0000.0001) %MON dynstat_salt_sd              =   2.9598126677481E-01
(PID.TID 0000.0001) %MON dynstat_salt_del2            =   2.6343193225843E-02
(PID.TID 0000.0001) %MON dynstat_sst_max              =   2.9763466125768E+01
(PID.TID 0000.0001) %MON dynstat_sst_min              =  -1.9089540901452E+00
(PID.TID 0000.0001) %MON dynstat_sst_mean             =   1.8517919664917E+01
(PID.TID 0000.0001) %MON dynstat_sst_sd               =   9.1362933453577E+00
(PID.TID 0000.0001) %MON dynstat_sst_del2             =   2.7972414623524E-01
(PID.TID 0000.0001) %MON dynstat_sss_max              =   3.7442197557573E+01
(PID.TID 0000.0001) %MON dynstat_sss_min              =   2.9759537372974E+01
(PID.TID 0000.0001) %MON dynstat_sss_mean             =   3.4850564235577E+01
(PID.TID 0000.0001) %MON dynstat_sss_sd               =   9.6211069027028E-01
(PID.TID 0000.0001) %MON dynstat_sss_del2             =   8.2971568828392E-02
(PID.TID 0000.0001) %MON extforcing_qnet_max          =   4.2903536987305E+02
(PID.TID 0000.0001) %MON extforcing_qnet_min          =  -1.8562549743652E+02
(PID.TID 0000.0001) %MON extforcing_qnet_mean         =  -1.6662669470921E+01
(PID.TID 0000.0001) %MON extforcing_qnet_sd           =   1.1221272517031E+02
(PID.TID 0000.0001) %MON extforcing_qnet_del2         =   9.4953524693249E+00
(PID.TID 0000.0001) %MON extforcing_qsw_max           =   0.0000000000000E+00
(PID.TID 0000.0001) %MON extforcing_qsw_min           =   0.0000000000000E+00
(PID.TID 0000.0001) %MON extforcing_qsw_mean          =   0.0000000000000E+00
(PID.TID 0000.0001) %MON extforcing_qsw_sd            =   0.0000000000000E+00
(PID.TID 0000.0001) %MON extforcing_qsw_del2          =   0.0000000000000E+00
(PID.TID 0000.0001) %MON extforcing_empmr_max         =   0.0000000000000E+00
(PID.TID 0000.0001) %MON extforcing_empmr_min         =   0.0000000000000E+00
(PID.TID 0000.0001) %MON extforcing_empmr_mean        =   0.0000000000000E+00
(PID.TID 0000.0001) %MON extforcing_empmr_sd          =   0.0000000000000E+00
(PID.TID 0000.0001) %MON extforcing_empmr_del2        =   0.0000000000000E+00
(PID.TID 0000.0001) %MON extforcing_fu_max            =   2.7231434583664E-01
(PID.TID 0000.0001) %MON extforcing_fu_min            =  -1.6111952960491E-01
(PID.TID 0000.0001) %MON extforcing_fu_mean           =   1.6094049005012E-02
(PID.TID 0000.0001) %MON extforcing_fu_sd             =   9.0140377513934E-02
(PID.TID 0000.0001) %MON extforcing_fu_del2           =   7.3624722576328E-03
(PID.TID 0000.0001) %MON extforcing_fv_max            =   2.1056245863438E-01
(PID.TID 0000.0001) %MON extforcing_fv_min            =  -1.8515278995037E-01
(PID.TID 0000.0001) %MON extforcing_fv_mean           =  -6.1440480618347E-03
(PID.TID 0000.0001) %MON extforcing_fv_sd             =   4.5513649503191E-02
(PID.TID 0000.0001) %MON extforcing_fv_del2           =   4.3482985726563E-03
(PID.TID 0000.0001) %MON advcfl_uvel_max              =   2.3561582726749E-02
(PID.TID 0000.0001) %MON advcfl_vvel_max              =   1.5840415859119E-02
(PID.TID 0000.0001) %MON advcfl_wvel_max              =   5.8777694396868E-02
(PID.TID 0000.0001) %MON advcfl_W_hf_max              =   7.6589116941374E-02
(PID.TID 0000.0001) %MON pe_b_mean                    =   3.9664522476499E-04
(PID.TID 0000.0001) %MON ke_max                       =   3.8403611266099E-03
(PID.TID 0000.0001) %MON ke_mean                      =   3.5633828892938E-05
(PID.TID 0000.0001) %MON ke_vol                       =   1.3226782436723E+18
(PID.TID 0000.0001) %MON vort_r_min                   =  -2.7411951381239E-07
(PID.TID 0000.0001) %MON vort_r_max                   =   2.3268007293565E-07
(PID.TID 0000.0001) %MON vort_a_mean                  =  -2.5274807105922E-05
(PID.TID 0000.0001) %MON vort_a_sd                    =   7.3604181595523E-05
(PID.TID 0000.0001) %MON vort_p_mean                  =  -3.1845655432152E-05
(PID.TID 0000.0001) %MON vort_p_sd                    =   1.3162489185722E-04
(PID.TID 0000.0001) %MON surfExpan_theta_mean         =   2.9687877327917E-06
(PID.TID 0000.0001) %MON surfExpan_salt_mean          =  -5.8226129160153E-08
(PID.TID 0000.0001) // =======================================================
(PID.TID 0000.0001) // End MONITOR dynamic field statistics
(PID.TID 0000.0001) // =======================================================
time,SST,SSS,fu,fv,Q,E-P,i0,i1,a,b =   3.4560E+05  2.9456E-01  3.4457E+01 -3.9202E-02 -6.2020E-02  2.6528E+02  0.0000E+00    12     1  6.3333E-01  3.6667E-01
time,fu0,fu1,fu =   3.4560E+05 -4.5368E-02 -3.5633E-02 -3.9202E-02  6.333333333333333E-01  3.666666666666667E-01
 cg2d: Sum(rhs),rhsMax =   3.63459262686661E-14  2.00995911954326E+00
(PID.TID 0000.0001)                    cg2d_init_res =    5.39517953358798E-01
(PID.TID 0000.0001)                       cg2d_iters =   180
(PID.TID 0000.0001)                         cg2d_res =    6.90680599228324E-20
(PID.TID 0000.0001) // =======================================================
(PID.TID 0000.0001) // Begin MONITOR dynamic field statistics
(PID.TID 0000.0001) // =======================================================
(PID.TID 0000.0001) %MON time_tsnumber                =                     5
(PID.TID 0000.0001) %MON time_secondsf                =   4.3200000000000E+05
(PID.TID 0000.0001) %MON dynstat_eta_max              =   8.8585342009550E-01
(PID.TID 0000.0001) %MON dynstat_eta_min              =  -1.5451316816064E+00
(PID.TID 0000.0001) %MON dynstat_eta_mean             =  -3.8004160923013E-16
(PID.TID 0000.0001) %MON dynstat_eta_sd               =   5.5557688208919E-01
(PID.TID 0000.0001) %MON dynstat_eta_del2             =   2.2752728531151E-02
(PID.TID 0000.0001) %MON dynstat_uvel_max             =   9.4483072585536E-02
(PID.TID 0000.0001) %MON dynstat_uvel_min             =  -7.1499413317025E-02
(PID.TID 0000.0001) %MON dynstat_uvel_mean            =  -7.1469718822526E-04
(PID.TID 0000.0001) %MON dynstat_uvel_sd              =   6.0913493288252E-03
(PID.TID 0000.0001) %MON dynstat_uvel_del2            =   2.0747618302554E-03
(PID.TID 0000.0001) %MON dynstat_vvel_max             =   7.5738366796599E-02
(PID.TID 0000.0001) %MON dynstat_vvel_min             =  -9.6855160443771E-02
(PID.TID 0000.0001) %MON dynstat_vvel_mean            =   2.5612468759339E-04
(PID.TID 0000.0001) %MON dynstat_vvel_sd              =   8.7639807003134E-03
(PID.TID 0000.0001) %MON dynstat_vvel_del2            =   2.5183459640961E-03
(PID.TID 0000.0001) %MON dynstat_wvel_max             =   2.1075743330808E-04
(PID.TID 0000.0001) %MON dynstat_wvel_min             =  -1.7563318523641E-04
(PID.TID 0000.0001) %MON dynstat_wvel_mean            =   6.4303591625375E-22
(PID.TID 0000.0001) %MON dynstat_wvel_sd              =   2.3300849417981E-05
(PID.TID 0000.0001) %MON dynstat_wvel_del2            =   9.6524254863421E-06
(PID.TID 0000.0001) %MON dynstat_theta_max            =   2.9773994410393E+01
(PID.TID 0000.0001) %MON dynstat_theta_min            =  -1.9086518446780E+00
(PID.TID 0000.0001) %MON dynstat_theta_mean           =   3.6188951893502E+00
(PID.TID 0000.0001) %MON dynstat_theta_sd             =   4.4142061138289E+00
(PID.TID 0000.0001) %MON dynstat_theta_del2           =   1.4687423231425E-01
(PID.TID 0000.0001) %MON dynstat_salt_max             =   3.7436566181810E+01
(PID.TID 0000.0001) %MON dynstat_salt_min             =   2.9757949286890E+01
(PID.TID 0000.0001) %MON dynstat_salt_mean            =   3.4717937980523E+01
(PID.TID 0000.0001) %MON dynstat_salt_sd              =   2.9594006167114E-01
(PID.TID 0000.0001) %MON dynstat_salt_del2            =   2.6250144960327E-02
(PID.TID 0000.0001) %MON dynstat_sst_max              =   2.9773994410393E+01
(PID.TID 0000.0001) %MON dynstat_sst_min              =  -1.9086518446780E+00
(PID.TID 0000.0001) %MON dynstat_sst_mean             =   1.8531720882517E+01
(PID.TID 0000.0001) %MON dynstat_sst_sd               =   9.1258653843139E+00
(PID.TID 0000.0001) %MON dynstat_sst_del2             =   2.7922294270638E-01
(PID.TID 0000.0001) %MON dynstat_sss_max              =   3.7436566181810E+01
(PID.TID 0000.0001) %MON dynstat_sss_min              =   2.9757949286890E+01
(PID.TID 0000.0001) %MON dynstat_sss_mean             =   3.4851126856766E+01
(PID.TID 0000.0001) %MON dynstat_sss_sd               =   9.6182999078733E-01
(PID.TID 0000.0001) %MON dynstat_sss_del2             =   8.2768547566405E-02
(PID.TID 0000.0001) %MON extforcing_qnet_max          =   4.3008355712891E+02
(PID.TID 0000.0001) %MON extforcing_qnet_min          =  -1.8515833485921E+02
(PID.TID 0000.0001) %MON extforcing_qnet_mean         =  -1.6650157515098E+01
(PID.TID 0000.0001) %MON extforcing_qnet_sd           =   1.1200321531664E+02
(PID.TID 0000.0001) %MON extforcing_qnet_del2         =   9.4991829492293E+00
(PID.TID 0000.0001) %MON extforcing_qsw_max           =   0.0000000000000E+00
(PID.TID 0000.0001) %MON extforcing_qsw_min           =   0.0000000000000E+00
(PID.TID 0000.0001) %MON extforcing_qsw_mean          =   0.0000000000000E+00
(PID.TID 0000.0001) %MON extforcing_qsw_sd            =   0.0000000000000E+00
(PID.TID 0000.0001) %MON extforcing_qsw_del2          =   0.0000000000000E+00
(PID.TID 0000.0001) %MON extforcing_empmr_max         =   0.0000000000000E+00
(PID.TID 0000.0001) %MON extforcing_empmr_min         =   0.0000000000000E+00
(PID.TID 0000.0001) %MON extforcing_empmr_mean        =   0.0000000000000E+00
(PID.TID 0000.0001) %MON extforcing_empmr_sd          =   0.0000000000000E+00
(PID.TID 0000.0001) %MON extforcing_empmr_del2        =   0.0000000000000E+00
(PID.TID 0000.0001) %MON extforcing_fu_max            =   2.7145579755306E-01
(PID.TID 0000.0001) %MON extforcing_fu_min            =  -1.6193294972181E-01
(PID.TID 0000.0001) %MON extforcing_fu_mean           =   1.6086356183975E-02
(PID.TID 0000.0001) %MON extforcing_fu_sd             =   9.0157845327697E-02
(PID.TID 0000.0001) %MON extforcing_fu_del2           =   7.3650677971764E-03
(PID.TID 0000.0001) %MON extforcing_fv_max            =   2.1244236379862E-01
(PID.TID 0000.0001) %MON extforcing_fv_min            =  -1.8456813246012E-01
(PID.TID 0000.0001) %MON extforcing_fv_mean           =  -6.0702855349739E-03
(PID.TID 0000.0001) %MON extforcing_fv_sd             =   4.5662631572644E-02
(PID.TID 0000.0001) %MON extforcing_fv_del2           =   4.3628461453053E-03
(PID.TID 0000.0001) %MON advcfl_uvel_max              =   3.0385544802040E-02
(PID.TID 0000.0001) %MON advcfl_vvel_max              =   1.8817404304206E-02
(PID.TID 0000.0001) %MON advcfl_wvel_max              =   6.8575881563177E-02
(PID.TID 0000.0001) %MON advcfl_W_hf_max              =   8.9356451733836E-02
(PID.TID 0000.0001) %MON pe_b_mean                    =   3.9497493155854E-04
(PID.TID 0000.0001) %MON ke_max                       =   5.8655097615337E-03
(PID.TID 0000.0001) %MON ke_mean                      =   5.1600853925809E-05
(PID.TID 0000.0001) %MON ke_vol                       =   1.3226782436723E+18
(PID.TID 0000.0001) %MON vort_r_min                   =  -2.6779002608757E-07
(PID.TID 0000.0001) %MON vort_r_max                   =   2.2721814220869E-07
(PID.TID 0000.0001) %MON vort_a_mean                  =  -2.5274807021647E-05
(PID.TID 0000.0001) %MON vort_a_sd                    =   7.3604212715470E-05
(PID.TID 0000.0001) %MON vort_p_mean                  =  -3.1845655325968E-05
(PID.TID 0000.0001) %MON vort_p_sd                    =   1.3162478589724E-04
(PID.TID 0000.0001) %MON surfExpan_theta_mean         =  -1.0673311978285E-06
(PID.TID 0000.0001) %MON surfExpan_salt_mean          =  -2.6435583125011E-07
(PID.TID 0000.0001) // =======================================================
(PID.TID 0000.0001) // End MONITOR dynamic field statistics
(PID.TID 0000.0001) // =======================================================
time,SST,SSS,fu,fv,Q,E-P,i0,i1,a,b =   4.3200E+05  3.5491E-01  3.4481E+01 -3.8878E-02 -6.1587E-02  2.6532E+02  0.0000E+00    12     1  6.6667E-01  3.3333E-01
time,fu0,fu1,fu =   4.3200E+05 -4.5368E-02 -3.5633E-02 -3.8878E-02  6.666666666666666E-01  3.333333333333334E-01
 cg2d: Sum(rhs),rhsMax =  -4.51999548900517E-14  1.78612610533026E+00
(PID.TID 0000.0001)                    cg2d_init_res =    6.57838557342733E-01
(PID.TID 0000.0001)                       cg2d_iters =   180
(PID.TID 0000.0001)                         cg2d_res =    8.66742263517086E-20
(PID.TID 0000.0001) // =======================================================
(PID.TID 0000.0001) // Begin MONITOR dynamic field statistics
(PID.TID 0000.0001) // =======================================================
(PID.TID 0000.0001) %MON time_tsnumber                =                     6
(PID.TID 0000.0001) %MON time_secondsf                =   5.1840000000000E+05
(PID.TID 0000.0001) %MON dynstat_eta_max              =   1.0294101685435E+00
(PID.TID 0000.0001) %MON dynstat_eta_min              =  -1.4914570922614E+00
(PID.TID 0000.0001) %MON dynstat_eta_mean             =   1.5612313641270E-16
(PID.TID 0000.0001) %MON dynstat_eta_sd               =   5.4496582999179E-01
(PID.TID 0000.0001) %MON dynstat_eta_del2             =   2.1915459469048E-02
(PID.TID 0000.0001) %MON dynstat_uvel_max             =   1.1623116920135E-01
(PID.TID 0000.0001) %MON dynstat_uvel_min             =  -8.0063677848718E-02
(PID.TID 0000.0001) %MON dynstat_uvel_mean            =  -5.1395874541632E-04
(PID.TID 0000.0001) %MON dynstat_uvel_sd              =   7.5008040174064E-03
(PID.TID 0000.0001) %MON dynstat_uvel_del2            =   2.2985118004669E-03
(PID.TID 0000.0001) %MON dynstat_vvel_max             =   8.5511615640342E-02
(PID.TID 0000.0001) %MON dynstat_vvel_min             =  -1.0888757072960E-01
(PID.TID 0000.0001) %MON dynstat_vvel_mean            =  -1.5064509398162E-05
(PID.TID 0000.0001) %MON dynstat_vvel_sd              =   9.8042645196219E-03
(PID.TID 0000.0001) %MON dynstat_vvel_del2            =   2.7945179162936E-03
(PID.TID 0000.0001) %MON dynstat_wvel_max             =   2.2569340349002E-04
(PID.TID 0000.0001) %MON dynstat_wvel_min             =  -1.8407983870048E-04
(PID.TID 0000.0001) %MON dynstat_wvel_mean            =   7.6627703327517E-22
(PID.TID 0000.0001) %MON dynstat_wvel_sd              =   2.5302056523655E-05
(PID.TID 0000.0001) %MON dynstat_wvel_del2            =   1.0274491437161E-05
(PID.TID 0000.0001) %MON dynstat_theta_max            =   2.9786077929489E+01
(PID.TID 0000.0001) %MON dynstat_theta_min            =  -1.9083761467702E+00
(PID.TID 0000.0001) %MON dynstat_theta_mean           =   3.6190645982770E+00
(PID.TID 0000.0001) %MON dynstat_theta_sd             =   4.4144784823126E+00
(PID.TID 0000.0001) %MON dynstat_theta_del2           =   1.4521977749565E-01
(PID.TID 0000.0001) %MON dynstat_salt_max             =   3.7432061603762E+01
(PID.TID 0000.0001) %MON dynstat_salt_min             =   2.9755654122698E+01
(PID.TID 0000.0001) %MON dynstat_salt_mean            =   3.4717946471255E+01
(PID.TID 0000.0001) %MON dynstat_salt_sd              =   2.9591639109363E-01
(PID.TID 0000.0001) %MON dynstat_salt_del2            =   2.6172429662883E-02
(PID.TID 0000.0001) %MON dynstat_sst_max              =   2.9786077929489E+01
(PID.TID 0000.0001) %MON dynstat_sst_min              =  -1.9083761467702E+00
(PID.TID 0000.0001) %MON dynstat_sst_mean             =   1.8546176678726E+01
(PID.TID 0000.0001) %MON dynstat_sst_sd               =   9.1161433879326E+00
(PID.TID 0000.0001) %MON dynstat_sst_del2             =   2.7839028493380E-01
(PID.TID 0000.0001) %MON dynstat_sss_max              =   3.7432061603762E+01
(PID.TID 0000.0001) %MON dynstat_sss_min              =   2.9755654122698E+01
(PID.TID 0000.0001) %MON dynstat_sss_mean             =   3.4851608057089E+01
(PID.TID 0000.0001) %MON dynstat_sss_sd               =   9.6150783922276E-01
(PID.TID 0000.0001) %MON dynstat_sss_del2             =   8.2592617610555E-02
(PID.TID 0000.0001) %MON extforcing_qnet_max          =   4.3113174438477E+02
(PID.TID 0000.0001) %MON extforcing_qnet_min          =  -1.8469117228190E+02
(PID.TID 0000.0001) %MON extforcing_qnet_mean         =  -1.6637645559275E+01
(PID.TID 0000.0001) %MON extforcing_qnet_sd           =   1.1179629855085E+02
(PID.TID 0000.0001) %MON extforcing_qnet_del2         =   9.5054858461914E+00
(PID.TID 0000.0001) %MON extforcing_qsw_max           =   0.0000000000000E+00
(PID.TID 0000.0001) %MON extforcing_qsw_min           =   0.0000000000000E+00
(PID.TID 0000.0001) %MON extforcing_qsw_mean          =   0.0000000000000E+00
(PID.TID 0000.0001) %MON extforcing_qsw_sd            =   0.0000000000000E+00
(PID.TID 0000.0001) %MON extforcing_qsw_del2          =   0.0000000000000E+00
(PID.TID 0000.0001) %MON extforcing_empmr_max         =   0.0000000000000E+00
(PID.TID 0000.0001) %MON extforcing_empmr_min         =   0.0000000000000E+00
(PID.TID 0000.0001) %MON extforcing_empmr_mean        =   0.0000000000000E+00
(PID.TID 0000.0001) %MON extforcing_empmr_sd          =   0.0000000000000E+00
(PID.TID 0000.0001) %MON extforcing_empmr_del2        =   0.0000000000000E+00
(PID.TID 0000.0001) %MON extforcing_fu_max            =   2.7059724926949E-01
(PID.TID 0000.0001) %MON extforcing_fu_min            =  -1.6274636983871E-01
(PID.TID 0000.0001) %MON extforcing_fu_mean           =   1.6078663362938E-02
(PID.TID 0000.0001) %MON extforcing_fu_sd             =   9.0186169351879E-02
(PID.TID 0000.0001) %MON extforcing_fu_del2           =   7.3711458055900E-03
(PID.TID 0000.0001) %MON extforcing_fv_max            =   2.1432226896286E-01
(PID.TID 0000.0001) %MON extforcing_fv_min            =  -1.8398347496986E-01
(PID.TID 0000.0001) %MON extforcing_fv_mean           =  -5.9965230081131E-03
(PID.TID 0000.0001) %MON extforcing_fv_sd             =   4.5826577347902E-02
(PID.TID 0000.0001) %MON extforcing_fv_del2           =   4.3818909283374E-03
(PID.TID 0000.0001) %MON advcfl_uvel_max              =   3.6935706033646E-02
(PID.TID 0000.0001) %MON advcfl_vvel_max              =   2.1155108646083E-02
(PID.TID 0000.0001) %MON advcfl_wvel_max              =   7.5681755334295E-02
(PID.TID 0000.0001) %MON advcfl_W_hf_max              =   9.8615620587112E-02
(PID.TID 0000.0001) %MON pe_b_mean                    =   3.8003163039606E-04
(PID.TID 0000.0001) %MON ke_max                       =   8.1177568975450E-03
(PID.TID 0000.0001) %MON ke_mean                      =   6.8834915983219E-05
(PID.TID 0000.0001) %MON ke_vol                       =   1.3226782436723E+18
(PID.TID 0000.0001) %MON vort_r_min                   =  -2.6078234282635E-07
(PID.TID 0000.0001) %MON vort_r_max                   =   2.2325486578588E-07
(PID.TID 0000.0001) %MON vort_a_mean                  =  -2.5274806972378E-05
(PID.TID 0000.0001) %MON vort_a_sd                    =   7.3604251846535E-05
(PID.TID 0000.0001) %MON vort_p_mean                  =  -3.1845655263890E-05
(PID.TID 0000.0001) %MON vort_p_sd                    =   1.3162466068898E-04
(PID.TID 0000.0001) %MON surfExpan_theta_mean         =  -2.1503351067649E-06
(PID.TID 0000.0001) %MON surfExpan_salt_mean          =  -2.8341071029456E-07
(PID.TID 0000.0001) // =======================================================
(PID.TID 0000.0001) // End MONITOR dynamic field statistics
(PID.TID 0000.0001) // =======================================================
time,SST,SSS,fu,fv,Q,E-P,i0,i1,a,b =   5.1840E+05  4.1526E-01  3.4504E+01 -3.8553E-02 -6.1154E-02  2.6537E+02  0.0000E+00    12     1  7.0000E-01  3.0000E-01
time,fu0,fu1,fu =   5.1840E+05 -4.5368E-02 -3.5633E-02 -3.8553E-02  7.000000000000000E-01  3.000000000000000E-01
 cg2d: Sum(rhs),rhsMax =  -2.44804176929847E-14  1.55419822260071E+00
(PID.TID 0000.0001)                    cg2d_init_res =    7.75694487521194E-01
(PID.TID 0000.0001)                       cg2d_iters =   179
(PID.TID 0000.0001)                         cg2d_res =    9.27094878604648E-20
(PID.TID 0000.0001) // =======================================================
(PID.TID 0000.0001) // Begin MONITOR dynamic field statistics
(PID.TID 0000.0001) // =======================================================
(PID.TID 0000.0001) %MON time_tsnumber                =                     7
(PID.TID 0000.0001) %MON time_secondsf                =   6.0480000000000E+05
(PID.TID 0000.0001) %MON dynstat_eta_max              =   1.0871063885078E+00
(PID.TID 0000.0001) %MON dynstat_eta_min              =  -1.4514421125799E+00
(PID.TID 0000.0001) %MON dynstat_eta_mean             =   1.3573217841663E-16
(PID.TID 0000.0001) %MON dynstat_eta_sd               =   5.3351668135403E-01
(PID.TID 0000.0001) %MON dynstat_eta_del2             =   2.0935264891230E-02
(PID.TID 0000.0001) %MON dynstat_uvel_max             =   1.3686783325581E-01
(PID.TID 0000.0001) %MON dynstat_uvel_min             =  -8.6092342269075E-02
(PID.TID 0000.0001) %MON dynstat_uvel_mean            =  -2.9441226120017E-04
(PID.TID 0000.0001) %MON dynstat_uvel_sd              =   8.9531218484808E-03
(PID.TID 0000.0001) %MON dynstat_uvel_del2            =   2.4686418977474E-03
(PID.TID 0000.0001) %MON dynstat_vvel_max             =   9.2489032710338E-02
(PID.TID 0000.0001) %MON dynstat_vvel_min             =  -1.1781971941382E-01
(PID.TID 0000.0001) %MON dynstat_vvel_mean            =  -2.1037202081636E-04
(PID.TID 0000.0001) %MON dynstat_vvel_sd              =   1.0543009451533E-02
(PID.TID 0000.0001) %MON dynstat_vvel_del2            =   2.9812782972489E-03
(PID.TID 0000.0001) %MON dynstat_wvel_max             =   2.3570151097292E-04
(PID.TID 0000.0001) %MON dynstat_wvel_min             =  -1.9351511805916E-04
(PID.TID 0000.0001) %MON dynstat_wvel_mean            =  -3.9206727385337E-22
(PID.TID 0000.0001) %MON dynstat_wvel_sd              =   2.6314501531109E-05
(PID.TID 0000.0001) %MON dynstat_wvel_del2            =   1.0438699176051E-05
(PID.TID 0000.0001) %MON dynstat_theta_max            =   2.9796936921787E+01
(PID.TID 0000.0001) %MON dynstat_theta_min            =  -1.9144302905623E+00
(PID.TID 0000.0001) %MON dynstat_theta_mean           =   3.6192184074677E+00
(PID.TID 0000.0001) %MON dynstat_theta_sd             =   4.4147195296307E+00
(PID.TID 0000.0001) %MON dynstat_theta_del2           =   1.4366865669320E-01
(PID.TID 0000.0001) %MON dynstat_salt_max             =   3.7428533721797E+01
(PID.TID 0000.0001) %MON dynstat_salt_min             =   2.9753230114819E+01
(PID.TID 0000.0001) %MON dynstat_salt_mean            =   3.4717952845468E+01
(PID.TID 0000.0001) %MON dynstat_salt_sd              =   2.9589743915778E-01
(PID.TID 0000.0001) %MON dynstat_salt_del2            =   2.6109578164362E-02
(PID.TID 0000.0001) %MON dynstat_sst_max              =   2.9796936921787E+01
(PID.TID 0000.0001) %MON dynstat_sst_min              =  -1.9144302905623E+00
(PID.TID 0000.0001) %MON dynstat_sst_mean             =   1.8561664542491E+01
(PID.TID 0000.0001) %MON dynstat_sst_sd               =   9.1063575316625E+00
(PID.TID 0000.0001) %MON dynstat_sst_del2             =   2.7745740746637E-01
(PID.TID 0000.0001) %MON dynstat_sss_max              =   3.7428533721797E+01
(PID.TID 0000.0001) %MON dynstat_sss_min              =   2.9753230114819E+01
(PID.TID 0000.0001) %MON dynstat_sss_mean             =   3.4852163842551E+01
(PID.TID 0000.0001) %MON dynstat_sss_sd               =   9.6127439275434E-01
(PID.TID 0000.0001) %MON dynstat_sss_del2             =   8.2378226043995E-02
(PID.TID 0000.0001) %MON extforcing_qnet_max          =   4.3217993164062E+02
(PID.TID 0000.0001) %MON extforcing_qnet_min          =  -1.8422400970459E+02
(PID.TID 0000.0001) %MON extforcing_qnet_mean         =  -1.6625133603451E+01
(PID.TID 0000.0001) %MON extforcing_qnet_sd           =   1.1159198929743E+02
(PID.TID 0000.0001) %MON extforcing_qnet_del2         =   9.5132681531629E+00
(PID.TID 0000.0001) %MON extforcing_qsw_max           =   0.0000000000000E+00
(PID.TID 0000.0001) %MON extforcing_qsw_min           =   0.0000000000000E+00
(PID.TID 0000.0001) %MON extforcing_qsw_mean          =   0.0000000000000E+00
(PID.TID 0000.0001) %MON extforcing_qsw_sd            =   0.0000000000000E+00
(PID.TID 0000.0001) %MON extforcing_qsw_del2          =   0.0000000000000E+00
(PID.TID 0000.0001) %MON extforcing_empmr_max         =   0.0000000000000E+00
(PID.TID 0000.0001) %MON extforcing_empmr_min         =   0.0000000000000E+00
(PID.TID 0000.0001) %MON extforcing_empmr_mean        =   0.0000000000000E+00
(PID.TID 0000.0001) %MON extforcing_empmr_sd          =   0.0000000000000E+00
(PID.TID 0000.0001) %MON extforcing_empmr_del2        =   0.0000000000000E+00
(PID.TID 0000.0001) %MON extforcing_fu_max            =   2.6977391839027E-01
(PID.TID 0000.0001) %MON extforcing_fu_min            =  -1.6355978995562E-01
(PID.TID 0000.0001) %MON extforcing_fu_mean           =   1.6070970541901E-02
(PID.TID 0000.0001) %MON extforcing_fu_sd             =   9.0225339362360E-02
(PID.TID 0000.0001) %MON extforcing_fu_del2           =   7.3810684217543E-03
(PID.TID 0000.0001) %MON extforcing_fv_max            =   2.1620217412710E-01
(PID.TID 0000.0001) %MON extforcing_fv_min            =  -1.8339881747961E-01
(PID.TID 0000.0001) %MON extforcing_fv_mean           =  -5.9227604812523E-03
(PID.TID 0000.0001) %MON extforcing_fv_sd             =   4.6005326854092E-02
(PID.TID 0000.0001) %MON extforcing_fv_del2           =   4.4065694167007E-03
(PID.TID 0000.0001) %MON advcfl_uvel_max              =   4.2896327098432E-02
(PID.TID 0000.0001) %MON advcfl_vvel_max              =   2.2890481880984E-02
(PID.TID 0000.0001) %MON advcfl_wvel_max              =   8.0227185493513E-02
(PID.TID 0000.0001) %MON advcfl_W_hf_max              =   1.0453845382488E-01
(PID.TID 0000.0001) %MON pe_b_mean                    =   3.6423125152851E-04
(PID.TID 0000.0001) %MON ke_max                       =   1.0481087629468E-02
(PID.TID 0000.0001) %MON ke_mean                      =   8.6378792320814E-05
(PID.TID 0000.0001) %MON ke_vol                       =   1.3226782436723E+18
(PID.TID 0000.0001) %MON vort_r_min                   =  -2.7492721359467E-07
(PID.TID 0000.0001) %MON vort_r_max                   =   2.4333918296826E-07
(PID.TID 0000.0001) %MON vort_a_mean                  =  -2.5274806974461E-05
(PID.TID 0000.0001) %MON vort_a_sd                    =   7.3604292484644E-05
(PID.TID 0000.0001) %MON vort_p_mean                  =  -3.1845655266515E-05
(PID.TID 0000.0001) %MON vort_p_sd                    =   1.3162451188571E-04
(PID.TID 0000.0001) %MON surfExpan_theta_mean         =  -1.6697380147387E-06
(PID.TID 0000.0001) %MON surfExpan_salt_mean          =  -2.2496374543827E-07
(PID.TID 0000.0001) // =======================================================
(PID.TID 0000.0001) // End MONITOR dynamic field statistics
(PID.TID 0000.0001) // =======================================================
time,SST,SSS,fu,fv,Q,E-P,i0,i1,a,b =   6.0480E+05  4.7561E-01  3.4527E+01 -3.8229E-02 -6.0721E-02  2.6541E+02  0.0000E+00    12     1  7.3333E-01  2.6667E-01
time,fu0,fu1,fu =   6.0480E+05 -4.5368E-02 -3.5633E-02 -3.8229E-02  7.333333333333333E-01  2.666666666666667E-01
 cg2d: Sum(rhs),rhsMax =  -5.29160049111965E-14  1.32823755952736E+00
(PID.TID 0000.0001)                    cg2d_init_res =    9.12664258437069E-01
(PID.TID 0000.0001)                       cg2d_iters =   179
(PID.TID 0000.0001)                         cg2d_res =    9.26312865696398E-20
(PID.TID 0000.0001) // =======================================================
(PID.TID 0000.0001) // Begin MONITOR dynamic field statistics
(PID.TID 0000.0001) // =======================================================
(PID.TID 0000.0001) %MON time_tsnumber                =                     8
(PID.TID 0000.0001) %MON time_secondsf                =   6.9120000000000E+05
(PID.TID 0000.0001) %MON dynstat_eta_max              =   1.0628419433098E+00
(PID.TID 0000.0001) %MON dynstat_eta_min              =  -1.4183888700557E+00
(PID.TID 0000.0001) %MON dynstat_eta_mean             =   1.4759034829915E-17
(PID.TID 0000.0001) %MON dynstat_eta_sd               =   5.2517955435409E-01
(PID.TID 0000.0001) %MON dynstat_eta_del2             =   1.9958905619722E-02
(PID.TID 0000.0001) %MON dynstat_uvel_max             =   1.5564366047490E-01
(PID.TID 0000.0001) %MON dynstat_uvel_min             =  -8.9539571683053E-02
(PID.TID 0000.0001) %MON dynstat_uvel_mean            =  -7.7308224401738E-05
(PID.TID 0000.0001) %MON dynstat_uvel_sd              =   1.0402700749396E-02
(PID.TID 0000.0001) %MON dynstat_uvel_del2            =   2.5947058648276E-03
(PID.TID 0000.0001) %MON dynstat_vvel_max             =   9.6693578110808E-02
(PID.TID 0000.0001) %MON dynstat_vvel_min             =  -1.2268302192400E-01
(PID.TID 0000.0001) %MON dynstat_vvel_mean            =  -3.1191752275699E-04
(PID.TID 0000.0001) %MON dynstat_vvel_sd              =   1.0980437504992E-02
(PID.TID 0000.0001) %MON dynstat_vvel_del2            =   3.0803920263751E-03
(PID.TID 0000.0001) %MON dynstat_wvel_max             =   2.3904059169290E-04
(PID.TID 0000.0001) %MON dynstat_wvel_min             =  -2.0540860582716E-04
(PID.TID 0000.0001) %MON dynstat_wvel_mean            =  -6.4858020058194E-22
(PID.TID 0000.0001) %MON dynstat_wvel_sd              =   2.6407343555872E-05
(PID.TID 0000.0001) %MON dynstat_wvel_del2            =   1.0188330431260E-05
(PID.TID 0000.0001) %MON dynstat_theta_max            =   2.9805866833915E+01
(PID.TID 0000.0001) %MON dynstat_theta_min            =  -1.9150021504260E+00
(PID.TID 0000.0001) %MON dynstat_theta_mean           =   3.6193402023523E+00
(PID.TID 0000.0001) %MON dynstat_theta_sd             =   4.4148731071882E+00
(PID.TID 0000.0001) %MON dynstat_theta_del2           =   1.4232569009918E-01
(PID.TID 0000.0001) %MON dynstat_salt_max             =   3.7428937210925E+01
(PID.TID 0000.0001) %MON dynstat_salt_min             =   2.9751207126134E+01
(PID.TID 0000.0001) %MON dynstat_salt_mean            =   3.4717956825947E+01
(PID.TID 0000.0001) %MON dynstat_salt_sd              =   2.9588147013038E-01
(PID.TID 0000.0001) %MON dynstat_salt_del2            =   2.6064472708195E-02
(PID.TID 0000.0001) %MON dynstat_sst_max              =   2.9805866833915E+01
(PID.TID 0000.0001) %MON dynstat_sst_min              =  -1.9150021504260E+00
(PID.TID 0000.0001) %MON dynstat_sst_mean             =   1.8576795926641E+01
(PID.TID 0000.0001) %MON dynstat_sst_sd               =   9.0965493759318E+00
(PID.TID 0000.0001) %MON dynstat_sst_del2             =   2.7667088998295E-01
(PID.TID 0000.0001) %MON dynstat_sss_max              =   3.7425804720309E+01
(PID.TID 0000.0001) %MON dynstat_sss_min              =   2.9751207126134E+01
(PID.TID 0000.0001) %MON dynstat_sss_mean             =   3.4852753859583E+01
(PID.TID 0000.0001) %MON dynstat_sss_sd               =   9.6110858849401E-01
(PID.TID 0000.0001) %MON dynstat_sss_del2             =   8.2287958170986E-02
(PID.TID 0000.0001) %MON extforcing_qnet_max          =   4.3322811889648E+02
(PID.TID 0000.0001) %MON extforcing_qnet_min          =  -1.8375684712728E+02
(PID.TID 0000.0001) %MON extforcing_qnet_mean         =  -1.6612621647629E+01
(PID.TID 0000.0001) %MON extforcing_qnet_sd           =   1.1139030190430E+02
(PID.TID 0000.0001) %MON extforcing_qnet_del2         =   9.5233734793557E+00
(PID.TID 0000.0001) %MON extforcing_qsw_max           =   0.0000000000000E+00
(PID.TID 0000.0001) %MON extforcing_qsw_min           =   0.0000000000000E+00
(PID.TID 0000.0001) %MON extforcing_qsw_mean          =   0.0000000000000E+00
(PID.TID 0000.0001) %MON extforcing_qsw_sd            =   0.0000000000000E+00
(PID.TID 0000.0001) %MON extforcing_qsw_del2          =   0.0000000000000E+00
(PID.TID 0000.0001) %MON extforcing_empmr_max         =   0.0000000000000E+00
(PID.TID 0000.0001) %MON extforcing_empmr_min         =   0.0000000000000E+00
(PID.TID 0000.0001) %MON extforcing_empmr_mean        =   0.0000000000000E+00
(PID.TID 0000.0001) %MON extforcing_empmr_sd          =   0.0000000000000E+00
(PID.TID 0000.0001) %MON extforcing_empmr_del2        =   0.0000000000000E+00
(PID.TID 0000.0001) %MON extforcing_fu_max            =   2.6985520720482E-01
(PID.TID 0000.0001) %MON extforcing_fu_min            =  -1.6437321007252E-01
(PID.TID 0000.0001) %MON extforcing_fu_mean           =   1.6063277720863E-02
(PID.TID 0000.0001) %MON extforcing_fu_sd             =   9.0275341241088E-02
(PID.TID 0000.0001) %MON extforcing_fu_del2           =   7.3960599965135E-03
(PID.TID 0000.0001) %MON extforcing_fv_max            =   2.1808207929134E-01
(PID.TID 0000.0001) %MON extforcing_fv_min            =  -1.8281415998936E-01
(PID.TID 0000.0001) %MON extforcing_fv_mean           =  -5.8489979543916E-03
(PID.TID 0000.0001) %MON extforcing_fv_sd             =   4.6198708258185E-02
(PID.TID 0000.0001) %MON extforcing_fv_del2           =   4.4368253517913E-03
(PID.TID 0000.0001) %MON advcfl_uvel_max              =   4.7979105660561E-02
(PID.TID 0000.0001) %MON advcfl_vvel_max              =   2.3835343560717E-02
(PID.TID 0000.0001) %MON advcfl_wvel_max              =   8.2129663550675E-02
(PID.TID 0000.0001) %MON advcfl_W_hf_max              =   1.0701744038421E-01
(PID.TID 0000.0001) %MON pe_b_mean                    =   3.5293670012632E-04
(PID.TID 0000.0001) %MON ke_max                       =   1.2838509227477E-02
(PID.TID 0000.0001) %MON ke_mean                      =   1.0333980599700E-04
(PID.TID 0000.0001) %MON ke_vol                       =   1.3226782436723E+18
(PID.TID 0000.0001) %MON vort_r_min                   =  -3.1469848391824E-07
(PID.TID 0000.0001) %MON vort_r_max                   =   2.5660498656241E-07
(PID.TID 0000.0001) %MON vort_a_mean                  =  -2.5274807024994E-05
(PID.TID 0000.0001) %MON vort_a_sd                    =   7.3604329744015E-05
(PID.TID 0000.0001) %MON vort_p_mean                  =  -3.1845655330186E-05
(PID.TID 0000.0001) %MON vort_p_sd                    =   1.3162434098231E-04
(PID.TID 0000.0001) %MON surfExpan_theta_mean         =  -7.7921709757132E-07
(PID.TID 0000.0001) %MON surfExpan_salt_mean          =  -1.5826668643923E-07
(PID.TID 0000.0001) // =======================================================
(PID.TID 0000.0001) // End MONITOR dynamic field statistics
(PID.TID 0000.0001) // =======================================================
time,SST,SSS,fu,fv,Q,E-P,i0,i1,a,b =   6.9120E+05  5.3596E-01  3.4551E+01 -3.7904E-02 -6.0288E-02  2.6546E+02  0.0000E+00    12     1  7.6667E-01  2.3333E-01
time,fu0,fu1,fu =   6.9120E+05 -4.5368E-02 -3.5633E-02 -3.7904E-02  7.666666666666667E-01  2.333333333333333E-01
 cg2d: Sum(rhs),rhsMax =  -2.97400992721464E-14  1.15613808765430E+00
(PID.TID 0000.0001)                    cg2d_init_res =    1.01831593497097E+00
(PID.TID 0000.0001)                       cg2d_iters =   179
(PID.TID 0000.0001)                         cg2d_res =    6.90372599928751E-20
(PID.TID 0000.0001) // =======================================================
(PID.TID 0000.0001) // Begin MONITOR dynamic field statistics
(PID.TID 0000.0001) // =======================================================
(PID.TID 0000.0001) %MON time_tsnumber                =                     9
(PID.TID 0000.0001) %MON time_secondsf                =   7.7760000000000E+05
(PID.TID 0000.0001) %MON dynstat_eta_max              =   9.7989918012392E-01
(PID.TID 0000.0001) %MON dynstat_eta_min              =  -1.3886769910225E+00
(PID.TID 0000.0001) %MON dynstat_eta_mean             =  -7.4262142653301E-17
(PID.TID 0000.0001) %MON dynstat_eta_sd               =   5.2185504351841E-01
(PID.TID 0000.0001) %MON dynstat_eta_del2             =   1.9095932819013E-02
(PID.TID 0000.0001) %MON dynstat_uvel_max             =   1.7191427745870E-01
(PID.TID 0000.0001) %MON dynstat_uvel_min             =  -9.0402573299790E-02
(PID.TID 0000.0001) %MON dynstat_uvel_mean            =   1.2102786797907E-04
(PID.TID 0000.0001) %MON dynstat_uvel_sd              =   1.1801872691038E-02
(PID.TID 0000.0001) %MON dynstat_uvel_del2            =   2.6882277270494E-03
(PID.TID 0000.0001) %MON dynstat_vvel_max             =   9.8141186135014E-02
(PID.TID 0000.0001) %MON dynstat_vvel_min             =  -1.2628570110240E-01
(PID.TID 0000.0001) %MON dynstat_vvel_mean            =  -3.2784501199889E-04
(PID.TID 0000.0001) %MON dynstat_vvel_sd              =   1.1133128160997E-02
(PID.TID 0000.0001) %MON dynstat_vvel_del2            =   3.0991444035253E-03
(PID.TID 0000.0001) %MON dynstat_wvel_max             =   2.3461764010265E-04
(PID.TID 0000.0001) %MON dynstat_wvel_min             =  -2.1131786890434E-04
(PID.TID 0000.0001) %MON dynstat_wvel_mean            =  -8.6312787655905E-22
(PID.TID 0000.0001) %MON dynstat_wvel_sd              =   2.5719335214526E-05
(PID.TID 0000.0001) %MON dynstat_wvel_del2            =   9.5987963737103E-06
(PID.TID 0000.0001) %MON dynstat_theta_max            =   2.9813196240319E+01
(PID.TID 0000.0001) %MON dynstat_theta_min            =  -1.9148111442169E+00
(PID.TID 0000.0001) %MON dynstat_theta_mean           =   3.6194363124362E+00
(PID.TID 0000.0001) %MON dynstat_theta_sd             =   4.4149582890800E+00
(PID.TID 0000.0001) %MON dynstat_theta_del2           =   1.4119798952891E-01
(PID.TID 0000.0001) %MON dynstat_salt_max             =   3.7429118072786E+01
(PID.TID 0000.0001) %MON dynstat_salt_min             =   2.9749935789758E+01
(PID.TID 0000.0001) %MON dynstat_salt_mean            =   3.4717959162571E+01
(PID.TID 0000.0001) %MON dynstat_salt_sd              =   2.9586629125287E-01
(PID.TID 0000.0001) %MON dynstat_salt_del2            =   2.6028385307277E-02
(PID.TID 0000.0001) %MON dynstat_sst_max              =   2.9813196240319E+01
(PID.TID 0000.0001) %MON dynstat_sst_min              =  -1.9148111442169E+00
(PID.TID 0000.0001) %MON dynstat_sst_mean             =   1.8590833343779E+01
(PID.TID 0000.0001) %MON dynstat_sst_sd               =   9.0876690672843E+00
(PID.TID 0000.0001) %MON dynstat_sst_del2             =   2.7645090469126E-01
(PID.TID 0000.0001) %MON dynstat_sss_max              =   3.7423701498643E+01
(PID.TID 0000.0001) %MON dynstat_sss_min              =   2.9749935789758E+01
(PID.TID 0000.0001) %MON dynstat_sss_mean             =   3.4853223235525E+01
(PID.TID 0000.0001) %MON dynstat_sss_sd               =   9.6090629236122E-01
(PID.TID 0000.0001) %MON dynstat_sss_del2             =   8.2126637080806E-02
(PID.TID 0000.0001) %MON extforcing_qnet_max          =   4.3427630615234E+02
(PID.TID 0000.0001) %MON extforcing_qnet_min          =  -1.8328968454997E+02
(PID.TID 0000.0001) %MON extforcing_qnet_mean         =  -1.6600109691805E+01
(PID.TID 0000.0001) %MON extforcing_qnet_sd           =   1.1119125063866E+02
(PID.TID 0000.0001) %MON extforcing_qnet_del2         =   9.5355422152042E+00
(PID.TID 0000.0001) %MON extforcing_qsw_max           =   0.0000000000000E+00
(PID.TID 0000.0001) %MON extforcing_qsw_min           =   0.0000000000000E+00
(PID.TID 0000.0001) %MON extforcing_qsw_mean          =   0.0000000000000E+00
(PID.TID 0000.0001) %MON extforcing_qsw_sd            =   0.0000000000000E+00
(PID.TID 0000.0001) %MON extforcing_qsw_del2          =   0.0000000000000E+00
(PID.TID 0000.0001) %MON extforcing_empmr_max         =   0.0000000000000E+00
(PID.TID 0000.0001) %MON extforcing_empmr_min         =   0.0000000000000E+00
(PID.TID 0000.0001) %MON extforcing_empmr_mean        =   0.0000000000000E+00
(PID.TID 0000.0001) %MON extforcing_empmr_sd          =   0.0000000000000E+00
(PID.TID 0000.0001) %MON extforcing_empmr_del2        =   0.0000000000000E+00
(PID.TID 0000.0001) %MON extforcing_fu_max            =   2.6993649601936E-01
(PID.TID 0000.0001) %MON extforcing_fu_min            =  -1.6518663018942E-01
(PID.TID 0000.0001) %MON extforcing_fu_mean           =   1.6055584899826E-02
(PID.TID 0000.0001) %MON extforcing_fu_sd             =   9.0336157001452E-02
(PID.TID 0000.0001) %MON extforcing_fu_del2           =   7.4166606390209E-03
(PID.TID 0000.0001) %MON extforcing_fv_max            =   2.1996198445559E-01
(PID.TID 0000.0001) %MON extforcing_fv_min            =  -1.8222950249910E-01
(PID.TID 0000.0001) %MON extforcing_fv_mean           =  -5.7752354275307E-03
(PID.TID 0000.0001) %MON extforcing_fv_sd             =   4.6406538642117E-02
(PID.TID 0000.0001) %MON extforcing_fv_del2           =   4.4720700663992E-03
(PID.TID 0000.0001) %MON advcfl_uvel_max              =   5.1954975553553E-02
(PID.TID 0000.0001) %MON advcfl_vvel_max              =   2.4535286345054E-02
(PID.TID 0000.0001) %MON advcfl_wvel_max              =   8.1540607212543E-02
(PID.TID 0000.0001) %MON advcfl_W_hf_max              =   1.0624988212544E-01
(PID.TID 0000.0001) %MON pe_b_mean                    =   3.4848249733676E-04
(PID.TID 0000.0001) %MON ke_max                       =   1.5081351230823E-02
(PID.TID 0000.0001) %MON ke_mean                      =   1.1897886445374E-04
(PID.TID 0000.0001) %MON ke_vol                       =   1.3226782436723E+18
(PID.TID 0000.0001) %MON vort_r_min                   =  -3.6023382001722E-07
(PID.TID 0000.0001) %MON vort_r_max                   =   2.7842309427543E-07
(PID.TID 0000.0001) %MON vort_a_mean                  =  -2.5274807104844E-05
(PID.TID 0000.0001) %MON vort_a_sd                    =   7.3604360385514E-05
(PID.TID 0000.0001) %MON vort_p_mean                  =  -3.1845655430794E-05
(PID.TID 0000.0001) %MON vort_p_sd                    =   1.3162415416265E-04
(PID.TID 0000.0001) %MON surfExpan_theta_mean         =  -7.7351371299884E-08
(PID.TID 0000.0001) %MON surfExpan_salt_mean          =  -1.1182394934661E-07
(PID.TID 0000.0001) // =======================================================
(PID.TID 0000.0001) // End MONITOR dynamic field statistics
(PID.TID 0000.0001) // =======================================================
time,SST,SSS,fu,fv,Q,E-P,i0,i1,a,b =   7.7760E+05  5.9632E-01  3.4574E+01 -3.7580E-02 -5.9855E-02  2.6550E+02  0.0000E+00    12     1  8.0000E-01  2.0000E-01
time,fu0,fu1,fu =   7.7760E+05 -4.5368E-02 -3.5633E-02 -3.7580E-02  8.000000000000000E-01  2.000000000000000E-01
 cg2d: Sum(rhs),rhsMax =   4.08700850940136E-14  1.08384893708049E+00
(PID.TID 0000.0001)                    cg2d_init_res =    1.02287151016482E+00
(PID.TID 0000.0001)                       cg2d_iters =   179
(PID.TID 0000.0001)                         cg2d_res =    8.83720679561013E-20
(PID.TID 0000.0001) // =======================================================
(PID.TID 0000.0001) // Begin MONITOR dynamic field statistics
(PID.TID 0000.0001) // =======================================================
(PID.TID 0000.0001) %MON time_tsnumber                =                    10
(PID.TID 0000.0001) %MON time_secondsf                =   8.6400000000000E+05
(PID.TID 0000.0001) %MON dynstat_eta_max              =   8.7036664785725E-01
(PID.TID 0000.0001) %MON dynstat_eta_min              =  -1.3633176280674E+00
(PID.TID 0000.0001) %MON dynstat_eta_mean             =   1.7849517290944E-16
(PID.TID 0000.0001) %MON dynstat_eta_sd               =   5.2380808175799E-01
(PID.TID 0000.0001) %MON dynstat_eta_del2             =   1.8366905032235E-02
(PID.TID 0000.0001) %MON dynstat_uvel_max             =   1.8513660560303E-01
(PID.TID 0000.0001) %MON dynstat_uvel_min             =  -8.8725505632107E-02
(PID.TID 0000.0001) %MON dynstat_uvel_mean            =   2.9083859911873E-04
(PID.TID 0000.0001) %MON dynstat_uvel_sd              =   1.3104355301681E-02
(PID.TID 0000.0001) %MON dynstat_uvel_del2            =   2.7606798144156E-03
(PID.TID 0000.0001) %MON dynstat_vvel_max             =   9.9910571323117E-02
(PID.TID 0000.0001) %MON dynstat_vvel_min             =  -1.2622016237406E-01
(PID.TID 0000.0001) %MON dynstat_vvel_mean            =  -2.8191675001684E-04
(PID.TID 0000.0001) %MON dynstat_vvel_sd              =   1.1037081202639E-02
(PID.TID 0000.0001) %MON dynstat_vvel_del2            =   3.0534550821056E-03
(PID.TID 0000.0001) %MON dynstat_wvel_max             =   2.2324537319441E-04
(PID.TID 0000.0001) %MON dynstat_wvel_min             =  -2.1099093317692E-04
(PID.TID 0000.0001) %MON dynstat_wvel_mean            =  -2.4381949024920E-23
(PID.TID 0000.0001) %MON dynstat_wvel_sd              =   2.4448019844119E-05
(PID.TID 0000.0001) %MON dynstat_wvel_del2            =   8.7809789870197E-06
(PID.TID 0000.0001) %MON dynstat_theta_max            =   2.9819357004412E+01
(PID.TID 0000.0001) %MON dynstat_theta_min            =  -1.9151909577148E+00
(PID.TID 0000.0001) %MON dynstat_theta_mean           =   3.6195190862188E+00
(PID.TID 0000.0001) %MON dynstat_theta_sd             =   4.4150122577381E+00
(PID.TID 0000.0001) %MON dynstat_theta_del2           =   1.4029087375515E-01
(PID.TID 0000.0001) %MON dynstat_salt_max             =   3.7428981349759E+01
(PID.TID 0000.0001) %MON dynstat_salt_min             =   2.9749540638926E+01
(PID.TID 0000.0001) %MON dynstat_salt_mean            =   3.4717960712847E+01
(PID.TID 0000.0001) %MON dynstat_salt_sd              =   2.9584951693227E-01
(PID.TID 0000.0001) %MON dynstat_salt_del2            =   2.6005376608828E-02
(PID.TID 0000.0001) %MON dynstat_sst_max              =   2.9819357004412E+01
(PID.TID 0000.0001) %MON dynstat_sst_min              =  -1.9151909577148E+00
(PID.TID 0000.0001) %MON dynstat_sst_mean             =   1.8604594426994E+01
(PID.TID 0000.0001) %MON dynstat_sst_sd               =   9.0792504099599E+00
(PID.TID 0000.0001) %MON dynstat_sst_del2             =   2.7658948887561E-01
(PID.TID 0000.0001) %MON dynstat_sss_max              =   3.7422077772679E+01
(PID.TID 0000.0001) %MON dynstat_sss_min              =   2.9749540638926E+01
(PID.TID 0000.0001) %MON dynstat_sss_mean             =   3.4853660298492E+01
(PID.TID 0000.0001) %MON dynstat_sss_sd               =   9.6069571778020E-01
(PID.TID 0000.0001) %MON dynstat_sss_del2             =   8.1983868399861E-02
(PID.TID 0000.0001) %MON extforcing_qnet_max          =   4.3532449340820E+02
(PID.TID 0000.0001) %MON extforcing_qnet_min          =  -1.8282252197266E+02
(PID.TID 0000.0001) %MON extforcing_qnet_mean         =  -1.6587597735982E+01
(PID.TID 0000.0001) %MON extforcing_qnet_sd           =   1.1099484968291E+02
(PID.TID 0000.0001) %MON extforcing_qnet_del2         =   9.5493322704987E+00
(PID.TID 0000.0001) %MON extforcing_qsw_max           =   0.0000000000000E+00
(PID.TID 0000.0001) %MON extforcing_qsw_min           =   0.0000000000000E+00
(PID.TID 0000.0001) %MON extforcing_qsw_mean          =   0.0000000000000E+00
(PID.TID 0000.0001) %MON extforcing_qsw_sd            =   0.0000000000000E+00
(PID.TID 0000.0001) %MON extforcing_qsw_del2          =   0.0000000000000E+00
(PID.TID 0000.0001) %MON extforcing_empmr_max         =   0.0000000000000E+00
(PID.TID 0000.0001) %MON extforcing_empmr_min         =   0.0000000000000E+00
(PID.TID 0000.0001) %MON extforcing_empmr_mean        =   0.0000000000000E+00
(PID.TID 0000.0001) %MON extforcing_empmr_sd          =   0.0000000000000E+00
(PID.TID 0000.0001) %MON extforcing_empmr_del2        =   0.0000000000000E+00
(PID.TID 0000.0001) %MON extforcing_fu_max            =   2.7001778483391E-01
(PID.TID 0000.0001) %MON extforcing_fu_min            =  -1.6600005030632E-01
(PID.TID 0000.0001) %MON extforcing_fu_mean           =   1.6047892078789E-02
(PID.TID 0000.0001) %MON extforcing_fu_sd             =   9.0407764820516E-02
(PID.TID 0000.0001) %MON extforcing_fu_del2           =   7.4408101367001E-03
(PID.TID 0000.0001) %MON extforcing_fv_max            =   2.2184188961983E-01
(PID.TID 0000.0001) %MON extforcing_fv_min            =  -1.8164484500885E-01
(PID.TID 0000.0001) %MON extforcing_fv_mean           =  -5.7014729006699E-03
(PID.TID 0000.0001) %MON extforcing_fv_sd             =   4.6628624802842E-02
(PID.TID 0000.0001) %MON extforcing_fv_del2           =   4.5135869181350E-03
(PID.TID 0000.0001) %MON advcfl_uvel_max              =   5.4671387415782E-02
(PID.TID 0000.0001) %MON advcfl_vvel_max              =   2.4522553221252E-02
(PID.TID 0000.0001) %MON advcfl_wvel_max              =   7.8697988377814E-02
(PID.TID 0000.0001) %MON advcfl_W_hf_max              =   1.0254586364382E-01
(PID.TID 0000.0001) %MON pe_b_mean                    =   3.5109576407010E-04
(PID.TID 0000.0001) %MON ke_max                       =   1.7114886002155E-02
(PID.TID 0000.0001) %MON ke_mean                      =   1.3278004411993E-04
(PID.TID 0000.0001) %MON ke_vol                       =   1.3226782436723E+18
(PID.TID 0000.0001) %MON vort_r_min                   =  -3.9861410336599E-07
(PID.TID 0000.0001) %MON vort_r_max                   =   3.0389994285182E-07
(PID.TID 0000.0001) %MON vort_a_mean                  =  -2.5274807183975E-05
(PID.TID 0000.0001) %MON vort_a_sd                    =   7.3604383089810E-05
(PID.TID 0000.0001) %MON vort_p_mean                  =  -3.1845655530498E-05
(PID.TID 0000.0001) %MON vort_p_sd                    =   1.3162396177493E-04
(PID.TID 0000.0001) %MON surfExpan_theta_mean         =   2.9032596259691E-07
(PID.TID 0000.0001) %MON surfExpan_salt_mean          =  -8.8643565938880E-08
(PID.TID 0000.0001) // =======================================================
(PID.TID 0000.0001) // End MONITOR dynamic field statistics
(PID.TID 0000.0001) // =======================================================
(PID.TID 0000.0001) %CHECKPOINT        10 ckptA
(PID.TID 0000.0001)  MDS_READ_FIELD: opening global file: lev_t_an.bin
 --> objf_test(bi,bj)   =  0.000000000000000E+00
 --> objf_tracer(bi,bj) =  0.000000000000000E+00
 --> objf_atl(bi,bj)    =  0.000000000000000E+00
 --> objf_temp_tut(bi,bj)   =  0.620487645062633E+01
 --> objf_hflux_tut(bi,bj) =  0.000000000000000E+00
  local fc =  0.620487645062633E+01
 global fc =  0.620487645062633E+01
(PID.TID 0000.0001)  MDS_READ_FIELD: opening global file: lev_t_an.bin
(PID.TID 0000.0001)  MDS_READ_FIELD: opening global file: bathymetry.bin
(PID.TID 0000.0001) // =======================================================
(PID.TID 0000.0001) // Field Model R_low (ini_masks_etc) at iteration          1
(PID.TID 0000.0001) // CMIN =         -5.200000000000000E+03
(PID.TID 0000.0001) // CMAX =         -1.200000000000000E+02
(PID.TID 0000.0001) // CINT =          1.881481481481482E+02
(PID.TID 0000.0001) // SYMBOLS (CMIN->CMAX): -abcdefghijklmnopqrstuvwxyz+
(PID.TID 0000.0001) //                  0.0: .
(PID.TID 0000.0001) // RANGE I (Lo:Hi:Step):(  -1:  92:   1)
(PID.TID 0000.0001) // RANGE J (Lo:Hi:Step):(  42:  -1:  -1)
(PID.TID 0000.0001) // RANGE K (Lo:Hi:Step):(   1:   1:   1)
(PID.TID 0000.0001) // =======================================================
(PID.TID 0000.0001) K =   1
(PID.TID 0000.0001) //                I=8       I=18      I=28      I=38      I=48      I=58      I=68      I=78      I=88
(PID.TID 0000.0001) // |--J--|101234567|901234567|901234567|901234567|901234567|901234567|901234567|901234567|901234567|9012
(PID.TID 0000.0001) //     42 ............................................zyxxmgfeeefefgimnpwwwy..+zyy.....yyyyoiiihhz+.....
(PID.TID 0000.0001) //     41 ..............................................................................................
(PID.TID 0000.0001) //     40 qlloqz+.++++zzz++++++..................................................................+++qllo
(PID.TID 0000.0001) //     39 slloorzzzzzzzzz+...++.....................................................yxxz........+zvusllo
(PID.TID 0000.0001) //     38 mqpporzzzzzz+++...........................................................zxxy+......zyyvsmqpp
(PID.TID 0000.0001) //     37 mmmuz..................................................................++...zy+...yttyy.+smmmu
(PID.TID 0000.0001) //     36 utt+.........................................mm++....................+++++++znmm.yoowssvuyutt+
(PID.TID 0000.0001) //     35 ++++.................................+zzz..rrmmkk+...+gghn...........+++....+nmiijlsoopuww++++
(PID.TID 0000.0001) //     34 .....................................+vvy.ggqyxv+y.ccdffhim..................+nihhikkihhm+....
(PID.TID 0000.0001) //     33 +.....................................uuz---h------aaabdefin+.................zqvddflifffw+...
(PID.TID 0000.0001) //     32 +.....................................+t----h---------acdfgnn................+++gdffkofffm+...
(PID.TID 0000.0001) //     31 ......................................-----ad--------abddegil..............qbaafccdhqqgddm....
(PID.TID 0000.0001) //     30 .....................................f----b--b------------abd............zfbb--fbcdosjfddi....
(PID.TID 0000.0001) //     29 ...................................tu----e---fjg----------abdf...........eaac--abfmijaadgi....
(PID.TID 0000.0001) //     28 .................................+xfl-------------------bdedefi.........qbaa---aemfbbaaejz....
(PID.TID 0000.0001) //     27 ................xx..............+wfgfpf--------eallc---bbbccefgi...+++x.qb-----akfa---ah......
(PID.TID 0000.0001) //     26 ................xnn...........+vd---dna------a--aicfna---aabdfghku.++xssuy-----bgca---ci......
(PID.TID 0000.0001) //     25 ................iiik...oo+...+ivd---doaa-bc--ilglf--aa---aabcghhkll...ssum+xaaacjbaabdjk......
(PID.TID 0000.0001) //     24 ..............xnheeft.kkk+...uii.aagdm----aa-----a-------bbbcdefjljjju.zummwwbbchba--abi......
(PID.TID 0000.0001) //     23 ..............xgheefp.iikw...uuw..fihi----fed-----eaaa--bbbbcdfflkjiiiq....zykccefa--abd......
(PID.TID 0000.0001) //     22 uss...........bbelffslffkk...zz.wqkeeqoheccdfa-----egabaabcdddegghliiiqq......xeeehheehccquss.
(PID.TID 0000.0001) //     21 bbeir........nbbcdjhqdddiiz.....wqfeelgghmedea-----bibbcddddddefghklnqoo........ieeflhgcccbbei
(PID.TID 0000.0001) //     20 bbder.......ldcccdgkccccidd......z.vkkktqqhegg----aaacddddddddefghkiiijl.........nhfa--gfcbbde
(PID.TID 0000.0001) //     19 cdaaf.......kddosggpaaaibbccx...+z+.....r+nlec---agaaabcddccddefikfgffff...........d---cjhcdaa
(PID.TID 0000.0001) //     18 d---d.......kglggvliaaaibbcaaeaiv++...qqzolhecccfdgkaabcdfccdeeikgfgffdd+..........d---djhd---
(PID.TID 0000.0001) //     17 c---c.......l.feewlfaaaoaa----aiv.....qqnllslmlofcdbaacceffffhhligfigeddj.........hd---ckhc---
(PID.TID 0000.0001) //     16 ba--c......tn.ddgnlfdaaqa-----lv.......vnllvllnwv--accivomfffhilhgfffeddjf........re--aeigba--
(PID.TID 0000.0001) //     15 b--dpz....+ll.ccdfhmdddlc----av.........otsxoomv---abccddfihgijkhgfffeejfff......+fd---ckfb--d
(PID.TID 0000.0001) //     14 c--mcl....weeqbaafilkfend--eagy.........hhstofft----aacdheefijkmjhhjijiffff.....zlfdaaadlfc--m
(PID.TID 0000.0001) //     13 cclbbg....nccobaaiddgkffqrqeaal.........eeutqfft------aaceeffhijlkjhhigfffq....+jgfodccflhcclb
(PID.TID 0000.0001) //     12 hgaaacw+iiicclemhdddfliigfdcaabfaaaz....ccsurqpc--------abcifffikiiihhggff.....kbbbdfffglhhgaa
(PID.TID 0000.0001) //     11 gcaaacbbifccennhbbdefnihgfdccaaaa----..dcccnt.ncab-------aabcdfilhggjiggff....l---abcefjlkgcaa
(PID.TID 0000.0001) //     10 fcaaccbdaacfrllfbbdegkmmljhfdddba----d.dcccfx.nyrebaba----abcdgilhfeegijgi..+w--aa-abcfilkfcaa
(PID.TID 0000.0001) //      9 ffcdcccaaaoqsolfdeehikihhlllgfedcccccdmdcccf.vyfaaaaaaaa--abdehmjhfeeefglv.++w-----abcdfklffcd
(PID.TID 0000.0001) //      8 iffjklcaafddffeeccvznkfffhhhlkjifgjkkfeeddfsyvcaaaaaaccdcccdfgjligedbbceg+.++xffn--cfddefliffj
(PID.TID 0000.0001) //      7 mqnnbbkkf--bmbaabbgtykfddeffeeddccdfhlffeelfbaaaaaacddeghgjgjlligeddaaabedfiiiiiisvkfkecchmqnn
(PID.TID 0000.0001) //      6 ca-------------aabcelttdddedddddccccdfkkiiffbaaaabcdgimmkmefecaaabbbaaabbdfiiiiispmmregifcca--
(PID.TID 0000.0001) //      5 -------a-------aaccehhhiddeddddddcccdfiikomodddefffmlmigedccaaaaaaaababbbdfiijsqgeccccbaa-----
(PID.TID 0000.0001) //      4 -ahebaabbbbbeihffgijiiiijpywnnpokkomkiiijmmmolkommmgffeeedccaaaaaabbcccefhmz..yjgeccccbaa--ahe
(PID.TID 0000.0001) //      3 ffhhrpjiiwyy............................yxotmjjjjgfeeeeeeddeffffheddeghjkyy..yqjgeddccdbbgffhh
(PID.TID 0000.0001) //      2 ............................................zyxxmgfeeefefgimnpwwwy..+zyy.....yyyyoiiihhz+.....
(PID.TID 0000.0001) //      1 ..............................................................................................
(PID.TID 0000.0001) //      0 qlloqz+.++++zzz++++++..................................................................+++qllo
(PID.TID 0000.0001) //     -1 slloorzzzzzzzzz+...++.....................................................yxxz........+zvusllo
(PID.TID 0000.0001) // =======================================================
(PID.TID 0000.0001) // END OF FIELD                                          =
(PID.TID 0000.0001) // =======================================================
(PID.TID 0000.0001) 
(PID.TID 0000.0001) // =======================================================
(PID.TID 0000.0001) // Field Model Ro_surf (ini_masks_etc) at iteration          1
(PID.TID 0000.0001) // CMIN =          1.000000000000000E+32
(PID.TID 0000.0001) // CMAX =         -1.000000000000000E+32
(PID.TID 0000.0001) // CINT =          0.000000000000000E+00
(PID.TID 0000.0001) // SYMBOLS (CMIN->CMAX): -abcdefghijklmnopqrstuvwxyz+
(PID.TID 0000.0001) //                  0.0: .
(PID.TID 0000.0001) // RANGE I (Lo:Hi:Step):(  -1:  92:   1)
(PID.TID 0000.0001) // RANGE J (Lo:Hi:Step):(  42:  -1:  -1)
(PID.TID 0000.0001) // RANGE K (Lo:Hi:Step):(   1:   1:   1)
(PID.TID 0000.0001) // =======================================================
(PID.TID 0000.0001) // =======================================================
(PID.TID 0000.0001) // END OF FIELD                                          =
(PID.TID 0000.0001) // =======================================================
(PID.TID 0000.0001) 
(PID.TID 0000.0001) // =======================================================
(PID.TID 0000.0001) // Field hFacC at iteration          1
(PID.TID 0000.0001) // CMIN =          1.000000000000000E+00
(PID.TID 0000.0001) // CMAX =          1.000000000000000E+00
(PID.TID 0000.0001) // CINT =          0.000000000000000E+00
(PID.TID 0000.0001) // SYMBOLS (CMIN->CMAX): -abcdefghijklmnopqrstuvwxyz+
(PID.TID 0000.0001) //                  0.0: .
(PID.TID 0000.0001) // RANGE I (Lo:Hi:Step):(  -1:  92:   1)
(PID.TID 0000.0001) // RANGE J (Lo:Hi:Step):(  42:  -1:  -1)
(PID.TID 0000.0001) // RANGE K (Lo:Hi:Step):(   1:   1:   1)
(PID.TID 0000.0001) // =======================================================
(PID.TID 0000.0001) // =======================================================
(PID.TID 0000.0001) // END OF FIELD                                          =
(PID.TID 0000.0001) // =======================================================
(PID.TID 0000.0001) 
(PID.TID 0000.0001) // =======================================================
(PID.TID 0000.0001) // Field hFacW at iteration          1
(PID.TID 0000.0001) // CMIN =          1.000000000000000E+00
(PID.TID 0000.0001) // CMAX =          1.000000000000000E+00
(PID.TID 0000.0001) // CINT =          0.000000000000000E+00
(PID.TID 0000.0001) // SYMBOLS (CMIN->CMAX): -abcdefghijklmnopqrstuvwxyz+
(PID.TID 0000.0001) //                  0.0: .
(PID.TID 0000.0001) // RANGE I (Lo:Hi:Step):(  -1:  92:   1)
(PID.TID 0000.0001) // RANGE J (Lo:Hi:Step):(  42:  -1:  -1)
(PID.TID 0000.0001) // RANGE K (Lo:Hi:Step):(   1:   1:   1)
(PID.TID 0000.0001) // =======================================================
(PID.TID 0000.0001) // =======================================================
(PID.TID 0000.0001) // END OF FIELD                                          =
(PID.TID 0000.0001) // =======================================================
(PID.TID 0000.0001) 
(PID.TID 0000.0001) // =======================================================
(PID.TID 0000.0001) // Field hFacS at iteration          1
(PID.TID 0000.0001) // CMIN =          1.000000000000000E+00
(PID.TID 0000.0001) // CMAX =          1.000000000000000E+00
(PID.TID 0000.0001) // CINT =          0.000000000000000E+00
(PID.TID 0000.0001) // SYMBOLS (CMIN->CMAX): -abcdefghijklmnopqrstuvwxyz+
(PID.TID 0000.0001) //                  0.0: .
(PID.TID 0000.0001) // RANGE I (Lo:Hi:Step):(  -1:  92:   1)
(PID.TID 0000.0001) // RANGE J (Lo:Hi:Step):(  42:  -1:  -1)
(PID.TID 0000.0001) // RANGE K (Lo:Hi:Step):(   1:   1:   1)
(PID.TID 0000.0001) // =======================================================
(PID.TID 0000.0001) // =======================================================
(PID.TID 0000.0001) // END OF FIELD                                          =
(PID.TID 0000.0001) // =======================================================
(PID.TID 0000.0001) 
(PID.TID 0000.0001) %MON surfExpanfCori_max           =   1.4265546244797E-04
(PID.TID 0000.0001) %MON surfExpanfCori_min           =  -1.4265546244797E-04
(PID.TID 0000.0001) %MON surfExpanfCori_mean          =  -1.2347858075529E-21
(PID.TID 0000.0001) %MON surfExpanfCori_sd            =   9.6599226301547E-05
(PID.TID 0000.0001) %MON surfExpanfCoriG_max          =   1.4151032568025E-04
(PID.TID 0000.0001) %MON surfExpanfCoriG_min          =  -1.4362679550910E-04
(PID.TID 0000.0001) %MON surfExpanfCoriG_mean         =  -3.5906698877274E-06
(PID.TID 0000.0001) %MON surfExpanfCoriG_sd           =   9.6548915696244E-05
(PID.TID 0000.0001) %MON surfExpanfCoriCos_max        =   1.4575362704741E-04
(PID.TID 0000.0001) %MON surfExpanfCoriCos_min        =   3.0322354601388E-05
(PID.TID 0000.0001) %MON surfExpanfCoriCos_mean       =   1.0288600773632E-04
(PID.TID 0000.0001) %MON surfExpanfCoriCos_sd         =   3.6784304327266E-05
(PID.TID 0000.0001) INI_CG2D: CG2D normalisation factor =  6.5682677425711703E-05
(PID.TID 0000.0001) 
(PID.TID 0000.0001)  MDS_READ_FIELD: opening global file: lev_t.bin
(PID.TID 0000.0001) // =======================================================
(PID.TID 0000.0001) // Field Initial Temperature at iteration          1
(PID.TID 0000.0001) // CMIN =         -1.900000000000000E+00
(PID.TID 0000.0001) // CMAX =          2.973338890075684E+01
(PID.TID 0000.0001) // CINT =          1.171606996324327E+00
(PID.TID 0000.0001) // SYMBOLS (CMIN->CMAX): -abcdefghijklmnopqrstuvwxyz+
(PID.TID 0000.0001) //                  0.0: .
(PID.TID 0000.0001) // RANGE I (Lo:Hi:Step):(   1:  90:   1)
(PID.TID 0000.0001) // RANGE J (Lo:Hi:Step):(  40:   1:  -1)
(PID.TID 0000.0001) // RANGE K (Lo:Hi:Step):(   1:   1:   1)
(PID.TID 0000.0001) // =======================================================
(PID.TID 0000.0001) K =   1
(PID.TID 0000.0001)                I=10      I=20      I=30      I=40      I=50      I=60      I=70      I=80      I=90
(PID.TID 0000.0001) |--J--|123456789|123456789|123456789|123456789|123456789|123456789|123456789|123456789|123456789|
(PID.TID 0000.0001)     40 bccdd.baa----abdedd..................................................................bbbbb
(PID.TID 0000.0001)     39 ccdddddccbbbaa...ed.....................................................----........bbbbbb
(PID.TID 0000.0001)     38 fffgfedeedddc...........................................................-----......cbbbcde
(PID.TID 0000.0001)     37 ghh..................................................................bc...bbc...edeed.defg
(PID.TID 0000.0001)     36 hh.........................................ddcb....................dcccbabccdd.eefghhihhih
(PID.TID 0000.0001)     35 hh.................................aaab..dddeddd...ffggg...........ccc....ddeeeffghijjjjih
(PID.TID 0000.0001)     34 ...................................babb.deeeeeee.ffffgghh..................ccdffghijkkkj..
(PID.TID 0000.0001)     33 ....................................accdddeeeeefffffgghhiii.................bcfijkkllllkk.
(PID.TID 0000.0001)     32 ....................................bdddeffgffgghhhhhiiijjj................dccglmnmmmmlll.
(PID.TID 0000.0001)     31 ....................................fghiiiijjjjjjkkkkklllkk..............ikkjjmooooonnmm..
(PID.TID 0000.0001)     30 ...................................mmmnmmmmmmmmmmmmmnnnnnmm............moqrrrqrqqqpppooo..
(PID.TID 0000.0001)     29 .................................pqqqqqpppppppppoppoppppponm...........ssssssrrrrrqqqqpp..
(PID.TID 0000.0001)     28 ...............................prssssrrrsssrrrrrrrrrrrrrqqpoo.........uttssstssrssrrrqqq..
(PID.TID 0000.0001)     27 ..............vv..............stuttuuuuutuuuuuuuuuuttttssrrqqq...stuu.vvvuuuuutttttsss....
(PID.TID 0000.0001)     26 ..............vvv...........uuvvvvvwwwwwwwwvvvvvvvvvuuutttsssttv.uuvxxwwwwwwvvvvuuttsr....
(PID.TID 0000.0001)     25 ..............wwwx...xxx...vvvxxxxxyyxxxxxxxxxwwwwwvvvvvuuuuuvwwx...xxxxxxwwwwwwvvutsr....
(PID.TID 0000.0001)     24 ............wwwwxyy.xxyy...wxx.yyyyyyyyyyyxxxxxxxxwwwwwwwvvwwxxyywww.xxxxxxxxxxwwwvvur....
(PID.TID 0000.0001)     23 ............xxxyyyz.xyyy...xxx..yyyyzzyyyyyyyyxxxxxxxxxwwwwwxxxwwwwwx....vwxxxxwwwwwvu....
(PID.TID 0000.0001)     22 w...........xxyyyzyyyyyz...xx.yyzzzzzzzzzzzzzyyzyyyyyyxxwwxxxxwvvvwwxw......yyyyxxxxxxwxxw
(PID.TID 0000.0001)     21 xxx........xxxxyyzzzzzzz+.....zyzzzzzzz++zzzzyyyyyyyyxxwvvwwwwvvvvvvvu........yyyyyyyyyxxx
(PID.TID 0000.0001)     20 xww.......xyyyyxyyzzzzzz+......z.zzzzz+++zzzzzzyyyyyxxxxwvwxwvuuuuuuut.........yyyyxxxxwww
(PID.TID 0000.0001)     19 vvv.......yyyyxwwxyzyyzzzzz...zzz.....++++++z++z+zzzyyyyxxxxwwvvvvvvvu...........yyxxxwwww
(PID.TID 0000.0001)     18 uut.......zzyyywwxyzyyyyzzyzzzzzz...z+z++++zz+++++++zzzyyyyxxwwwvvvvvtt..........yyxxwvvwv
(PID.TID 0000.0001)     17 uus.......z.yyyyyyxyzzyyyyyyyzz.....yzzzzzzzzzzzzzzzzzzyyyyxxwwvuuvvuut.........yyyxxwttvu
(PID.TID 0000.0001)     16 utr......yy.zyyyyxxxxxxxwxxxxy.......yyyyyyyyyyyyyyyyyyyyyyyxxwvvvuuutts........xyyyxwvuuu
(PID.TID 0000.0001)     15 ttrr....xxx.xxxwxwwwwvwwvvvww.........xwxxxxxxxxxxxxxxxxxyyyxwwwvvuttssrr......wxxxxxwwvuu
(PID.TID 0000.0001)     14 ttsq....xyxwwxwvwwwvutuuuuuuu.........wwvwwwwvwvvwwwvwvvwwwwwwvvvuuutssrr.....vwwwwwwwvvvu
(PID.TID 0000.0001)     13 tttr....wwwvvvtttuuuutttssttt.........vvvuuuuuuutttttuuuuuvwwwuuuttttssrr....uvvvvvvvvvvut
(PID.TID 0000.0001)     12 sssssstttutssssrrrrrstrqqrrssqqrrq....uuttssssrrrrrrrrrrrstttssssrssrrqp.....uuuttssttssss
(PID.TID 0000.0001)     11 poprsssrqqqqqrqppooopqpoppppppppppp..sssrrr.rqpppqqqqppppqqqoppqqqqrqqpp....prsrqqqqqppppq
(PID.TID 0000.0001)     10 lllmoooonmnnmnnnnmmmmmmlmmlllmnnnnon.qqqppp.ppppppooooooooonmnnnonnooooo..nmoponnmnnnnnmll
(PID.TID 0000.0001)      9 ihhiiiihhhhhhiiihiiiiihhhiiiijjkkmnllnnnnn.mmmmnnnnmmmmnnmmlklllllklllll.mllmmllkjiijjihhi
(PID.TID 0000.0001)      8 eeeeeeeedefgggffeeffggffffggghiiiijjijklklkkkkkkkklllkkkkjjiiijkjjjjjjkj.kkjjiihggffffedde
(PID.TID 0000.0001)      7 cccccddeedddefeddddddddddefeefffffgggghiiiiiijjjihhgggghhhhhghhhhhhhiiiihiihhgfeddddddcccc
(PID.TID 0000.0001)      6 abbcccddcccccdddddccdddddddccddddddeeeeffggggghhgeddddddeeeeeeefggggghggggffeedccbbbbbbbba
(PID.TID 0000.0001)      5 bbbcccccccccccccccccccccbbccccdddddddcccddeeddeedcbbbbbbccccccdddeeeeeddddddccbbbbaaaaaaab
(PID.TID 0000.0001)      4 bbbbbbbaaabbbbbbbbbbbbaabbabbbbcbbbbbbbbbbbbbbbbbbbabbaaabbbbbbbbbbbbbbbbb..a--aaabbbaaabb
(PID.TID 0000.0001)      3 bbbbaaa-a-............................bbaaaaaaaaaaaaaaaaaaaaaaaaaaaaaaaab..aaaaaaaabbbaaaa
(PID.TID 0000.0001)      2 ..........................................baaaaaaaaaaaa-------aa..aaaa.....aaaaaaaaaaaa...
(PID.TID 0000.0001)      1 ..........................................................................................
(PID.TID 0000.0001) // =======================================================
(PID.TID 0000.0001) // END OF FIELD                                          =
(PID.TID 0000.0001) // =======================================================
(PID.TID 0000.0001) 
(PID.TID 0000.0001)  MDS_READ_FIELD: opening global file: lev_s.bin
(PID.TID 0000.0001) // =======================================================
(PID.TID 0000.0001) // Field Initial Salinity at iteration          1
(PID.TID 0000.0001) // CMIN =          2.975276947021484E+01
(PID.TID 0000.0001) // CMAX =          3.747562789916992E+01
(PID.TID 0000.0001) // CINT =          2.860317936650029E-01
(PID.TID 0000.0001) // SYMBOLS (CMIN->CMAX): -abcdefghijklmnopqrstuvwxyz+
(PID.TID 0000.0001) //                  0.0: .
(PID.TID 0000.0001) // RANGE I (Lo:Hi:Step):(   1:  90:   1)
(PID.TID 0000.0001) // RANGE J (Lo:Hi:Step):(  40:   1:  -1)
(PID.TID 0000.0001) // RANGE K (Lo:Hi:Step):(   1:   1:   1)
(PID.TID 0000.0001) // =======================================================
(PID.TID 0000.0001) K =   1
(PID.TID 0000.0001)                I=10      I=20      I=30      I=40      I=50      I=60      I=70      I=80      I=90
(PID.TID 0000.0001) |--J--|123456789|123456789|123456789|123456789|123456789|123456789|123456789|123456789|123456789|
(PID.TID 0000.0001)     40 qrrrr.oonnooopqtutt..................................................................mnnop
(PID.TID 0000.0001)     39 rssrrrrrrrqqpn...ut.....................................................mmmm........opqqqr
(PID.TID 0000.0001)     38 ssrrqqqqrrqpo...........................................................lkkll......onoqrrs
(PID.TID 0000.0001)     37 ssr..................................................................hg...lln...qppqr.rrrs
(PID.TID 0000.0001)     36 rr.........................................lkji....................feeegikmoop.pqrssssssss
(PID.TID 0000.0001)     35 rr.................................kkkk..lllllki...jijjj...........aa-....opqrrrrrrrssttss
(PID.TID 0000.0001)     34 ...................................jlll.kklllllk.ijkkkjih..................hlpqrqrrsstts..
(PID.TID 0000.0001)     33 ....................................iklkkkkkkkkkjkkjjjjjjii.................jmprrsstttttt.
(PID.TID 0000.0001)     32 ....................................iklllkllllllllkkkkkkkji................gilpstuuttuuut.
(PID.TID 0000.0001)     31 ....................................lmnonnnnoooonnmmmmllkjj..............loopqtvvvuuuuuu..
(PID.TID 0000.0001)     30 ...................................pppppppqqqqpppoooonnmlkk............ptvxwwvvwvvvvvvvu..
(PID.TID 0000.0001)     29 .................................pqqrqqqqqqrrrqqppqqqpponmll...........vxxxxxxwwwwwxwwxw..
(PID.TID 0000.0001)     28 ...............................prrrrrqqrrrrrsrrsrssssssrqonmm.........wxxxxxxxyyyyyyyyxx..
(PID.TID 0000.0001)     27 ..............xx..............prrrrrrrrrssssssstttssssssrqpoop...uwww.wwxxxyyy++zzzzyy....
(PID.TID 0000.0001)     26 ..............wxx...........ppqrrrrrrsssrrstsstttssrrrrrrrqppqqp.wwwvvwwwwwxyy+++zzyxw....
(PID.TID 0000.0001)     25 ..............wxxv...kkk...ooopqrrrrrssrrrrrrrssssqqpppppppppppoo...vvutuuvvwxyyyxxvvu....
(PID.TID 0000.0001)     24 ............uvvwwur.lmlk...nmm.pqqqqrrrrrqqqqrrqqrpppppooooonmmmnooo.uuuuuuttuvvvuvuut....
(PID.TID 0000.0001)     23 ............vvuvtqp.lmml...mln..ppppqpqppppppqpppppppppqppponnnnnoopm....xvuuuvvvvuuut....
(PID.TID 0000.0001)     22 r...........vuttsqqpnppn...mm.oppqqrrqqqqqqppppqqrrrqqqrrppppoopooomjj......uuvvvvvuttssrr
(PID.TID 0000.0001)     21 qmm........ttsssssssrsqon.....opqqqqqqqrrrrqqqssssssrrrrrrrrpqqqppomll........tvvvvuttssrr
(PID.TID 0000.0001)     20 sqq.......sttssrrsrrrrpol......p.qrqpqrrrrrrrstttttsssrrsssrqrrrrqqqpo.........wwwvvvuuutt
(PID.TID 0000.0001)     19 tsr.......ssssrrrrpppppnmmm...oqq.....qrqqsrrstttuuuttssttssrrssrrrrqq...........wwwvuvvvv
(PID.TID 0000.0001)     18 wut.......ssrrrrrqppppppppoooorrr...poqqqprrrttttuuutuuuuuutttttttutsss..........yyxwwxwxx
(PID.TID 0000.0001)     17 wwu.......s.rrrrrrqppppqqqqqqqr.....rrsrqrsssuusrtuuuvvvwwvvvuuuuutttss.........xyzyyyyxxx
(PID.TID 0000.0001)     16 vvt......ss.qrrssrqrqpqrrrrrrr.......ssrrstsstusrsuuuvwwwwxxwwvvvuttttsr........yz+zzzxwww
(PID.TID 0000.0001)     15 utss....stt.rrssstttsrrsrstsr.........ssstttssttsuuttuvvvvwxwwwwwuttsssrr......xyyyyxyyxwv
(PID.TID 0000.0001)     14 utts....sstrrssstuuuuuuuuuutt.........stttuutttttttuttttttuvvvvvvutsrqrrr.....vxxwwwwxwvwv
(PID.TID 0000.0001)     13 uuut....ttttttttuuuuuvtuuuuuu.........ttttuutttttttuutsssstttttstsqrqqppp....uwwwvuvvvutvv
(PID.TID 0000.0001)     12 ttttttttttttttttttttttssuuuuutuuut....tttttttttttsssssrrrrrrrqqqqqppppoo.....rvvuuttttttuu
(PID.TID 0000.0001)     11 rqsttttttttuuttttsssssrrstttttttsss..ttttts.tsssrrrrqqqqqppppoonnooooooo....oruttttsssrqrs
(PID.TID 0000.0001)     10 pppqrssrqqrqpqrssrrqqqqqqrrrrrrrrrrs.sssssr.rssrrqqpppppppooooonnnoooonn..moqrrrqqqqqqqqqq
(PID.TID 0000.0001)      9 oonooooooooonnnooooooooooppppppqqqqqrrrqrq.pppqqqqqppppppppppoooooooooll.lmoqqqqppooooopoo
(PID.TID 0000.0001)      8 nnnoonooooooonnnnnnnoooonoonoooppopqqqqqqqppopppqqqpppppppppppppppooopon.lnopppoooonnnnooo
(PID.TID 0000.0001)      7 ooooooooooopponnnooooooonnnnnonnooooooooopppppppoooooooooopppppppppoopqnnmnoooonnnonnnnnno
(PID.TID 0000.0001)      6 oooonnoonnnnooooooooooooonnnnnnnnnnnnnnnnoooopppooooooooooooooppppppppppoooooooonnnnnmnnnn
(PID.TID 0000.0001)      5 oooonnnnnnnnnnnnnnnnnoooooonnnnnnonnnnnnnnnoooooooooooonnnnnnooooooopoooonoooonnnnnnnooooo
(PID.TID 0000.0001)      4 oooonnnooonnnnnnnnnnnnnnoooooonnnooooonnnooooooooppponnnnmmmnnnnmnnoonnnnn..nnnooooooooooo
(PID.TID 0000.0001)      3 ooonnnnnnn............................nnoooooonnooooonnnnnnnoonnnnnnnnmmm..ooopooooooooooo
(PID.TID 0000.0001)      2 ..........................................pppooooonnnnnnoooppppo..nnnn.....qqqpppoooooo...
(PID.TID 0000.0001)      1 ..........................................................................................
(PID.TID 0000.0001) // =======================================================
(PID.TID 0000.0001) // END OF FIELD                                          =
(PID.TID 0000.0001) // =======================================================
(PID.TID 0000.0001) 
(PID.TID 0000.0001) Start initial hydrostatic pressure computation
(PID.TID 0000.0001) Pressure is predetermined for buoyancyRelation OCEANIC
(PID.TID 0000.0001) 
(PID.TID 0000.0001)  MDS_READ_FIELD: opening global file: trenberth_taux.bin
(PID.TID 0000.0001)  MDS_READ_FIELD: opening global file: trenberth_tauy.bin
(PID.TID 0000.0001)  MDS_READ_FIELD: opening global file: ncep_qnet.bin
(PID.TID 0000.0001)  MDS_READ_FIELD: opening global file: lev_sst.bin
(PID.TID 0000.0001)  MDS_READ_FIELD: opening global file: lev_sss.bin
(PID.TID 0000.0001) // =======================================================
(PID.TID 0000.0001) // Model current state
(PID.TID 0000.0001) // =======================================================
(PID.TID 0000.0001) 
(PID.TID 0000.0001)  MDS_READ_FIELD: opening global file: bathymetry.bin
(PID.TID 0000.0001) // =======================================================
(PID.TID 0000.0001) // Field Model R_low (ini_masks_etc) at iteration          1
(PID.TID 0000.0001) // CMIN =         -5.200000000000000E+03
(PID.TID 0000.0001) // CMAX =         -1.200000000000000E+02
(PID.TID 0000.0001) // CINT =          1.881481481481482E+02
(PID.TID 0000.0001) // SYMBOLS (CMIN->CMAX): -abcdefghijklmnopqrstuvwxyz+
(PID.TID 0000.0001) //                  0.0: .
(PID.TID 0000.0001) // RANGE I (Lo:Hi:Step):(  -1:  92:   1)
(PID.TID 0000.0001) // RANGE J (Lo:Hi:Step):(  42:  -1:  -1)
(PID.TID 0000.0001) // RANGE K (Lo:Hi:Step):(   1:   1:   1)
(PID.TID 0000.0001) // =======================================================
(PID.TID 0000.0001) K =   1
(PID.TID 0000.0001) //                I=8       I=18      I=28      I=38      I=48      I=58      I=68      I=78      I=88
(PID.TID 0000.0001) // |--J--|101234567|901234567|901234567|901234567|901234567|901234567|901234567|901234567|901234567|9012
(PID.TID 0000.0001) //     42 ............................................zyxxmgfeeefefgimnpwwwy..+zyy.....yyyyoiiihhz+.....
(PID.TID 0000.0001) //     41 ..............................................................................................
(PID.TID 0000.0001) //     40 qlloqz+.++++zzz++++++..................................................................+++qllo
(PID.TID 0000.0001) //     39 slloorzzzzzzzzz+...++.....................................................yxxz........+zvusllo
(PID.TID 0000.0001) //     38 mqpporzzzzzz+++...........................................................zxxy+......zyyvsmqpp
(PID.TID 0000.0001) //     37 mmmuz..................................................................++...zy+...yttyy.+smmmu
(PID.TID 0000.0001) //     36 utt+.........................................mm++....................+++++++znmm.yoowssvuyutt+
(PID.TID 0000.0001) //     35 ++++.................................+zzz..rrmmkk+...+gghn...........+++....+nmiijlsoopuww++++
(PID.TID 0000.0001) //     34 .....................................+vvy.ggqyxv+y.ccdffhim..................+nihhikkihhm+....
(PID.TID 0000.0001) //     33 +.....................................uuz---h------aaabdefin+.................zqvddflifffw+...
(PID.TID 0000.0001) //     32 +.....................................+t----h---------acdfgnn................+++gdffkofffm+...
(PID.TID 0000.0001) //     31 ......................................-----ad--------abddegil..............qbaafccdhqqgddm....
(PID.TID 0000.0001) //     30 .....................................f----b--b------------abd............zfbb--fbcdosjfddi....
(PID.TID 0000.0001) //     29 ...................................tu----e---fjg----------abdf...........eaac--abfmijaadgi....
(PID.TID 0000.0001) //     28 .................................+xfl-------------------bdedefi.........qbaa---aemfbbaaejz....
(PID.TID 0000.0001) //     27 ................xx..............+wfgfpf--------eallc---bbbccefgi...+++x.qb-----akfa---ah......
(PID.TID 0000.0001) //     26 ................xnn...........+vd---dna------a--aicfna---aabdfghku.++xssuy-----bgca---ci......
(PID.TID 0000.0001) //     25 ................iiik...oo+...+ivd---doaa-bc--ilglf--aa---aabcghhkll...ssum+xaaacjbaabdjk......
(PID.TID 0000.0001) //     24 ..............xnheeft.kkk+...uii.aagdm----aa-----a-------bbbcdefjljjju.zummwwbbchba--abi......
(PID.TID 0000.0001) //     23 ..............xgheefp.iikw...uuw..fihi----fed-----eaaa--bbbbcdfflkjiiiq....zykccefa--abd......
(PID.TID 0000.0001) //     22 uss...........bbelffslffkk...zz.wqkeeqoheccdfa-----egabaabcdddegghliiiqq......xeeehheehccquss.
(PID.TID 0000.0001) //     21 bbeir........nbbcdjhqdddiiz.....wqfeelgghmedea-----bibbcddddddefghklnqoo........ieeflhgcccbbei
(PID.TID 0000.0001) //     20 bbder.......ldcccdgkccccidd......z.vkkktqqhegg----aaacddddddddefghkiiijl.........nhfa--gfcbbde
(PID.TID 0000.0001) //     19 cdaaf.......kddosggpaaaibbccx...+z+.....r+nlec---agaaabcddccddefikfgffff...........d---cjhcdaa
(PID.TID 0000.0001) //     18 d---d.......kglggvliaaaibbcaaeaiv++...qqzolhecccfdgkaabcdfccdeeikgfgffdd+..........d---djhd---
(PID.TID 0000.0001) //     17 c---c.......l.feewlfaaaoaa----aiv.....qqnllslmlofcdbaacceffffhhligfigeddj.........hd---ckhc---
(PID.TID 0000.0001) //     16 ba--c......tn.ddgnlfdaaqa-----lv.......vnllvllnwv--accivomfffhilhgfffeddjf........re--aeigba--
(PID.TID 0000.0001) //     15 b--dpz....+ll.ccdfhmdddlc----av.........otsxoomv---abccddfihgijkhgfffeejfff......+fd---ckfb--d
(PID.TID 0000.0001) //     14 c--mcl....weeqbaafilkfend--eagy.........hhstofft----aacdheefijkmjhhjijiffff.....zlfdaaadlfc--m
(PID.TID 0000.0001) //     13 cclbbg....nccobaaiddgkffqrqeaal.........eeutqfft------aaceeffhijlkjhhigfffq....+jgfodccflhcclb
(PID.TID 0000.0001) //     12 hgaaacw+iiicclemhdddfliigfdcaabfaaaz....ccsurqpc--------abcifffikiiihhggff.....kbbbdfffglhhgaa
(PID.TID 0000.0001) //     11 gcaaacbbifccennhbbdefnihgfdccaaaa----..dcccnt.ncab-------aabcdfilhggjiggff....l---abcefjlkgcaa
(PID.TID 0000.0001) //     10 fcaaccbdaacfrllfbbdegkmmljhfdddba----d.dcccfx.nyrebaba----abcdgilhfeegijgi..+w--aa-abcfilkfcaa
(PID.TID 0000.0001) //      9 ffcdcccaaaoqsolfdeehikihhlllgfedcccccdmdcccf.vyfaaaaaaaa--abdehmjhfeeefglv.++w-----abcdfklffcd
(PID.TID 0000.0001) //      8 iffjklcaafddffeeccvznkfffhhhlkjifgjkkfeeddfsyvcaaaaaaccdcccdfgjligedbbceg+.++xffn--cfddefliffj
(PID.TID 0000.0001) //      7 mqnnbbkkf--bmbaabbgtykfddeffeeddccdfhlffeelfbaaaaaacddeghgjgjlligeddaaabedfiiiiiisvkfkecchmqnn
(PID.TID 0000.0001) //      6 ca-------------aabcelttdddedddddccccdfkkiiffbaaaabcdgimmkmefecaaabbbaaabbdfiiiiispmmregifcca--
(PID.TID 0000.0001) //      5 -------a-------aaccehhhiddeddddddcccdfiikomodddefffmlmigedccaaaaaaaababbbdfiijsqgeccccbaa-----
(PID.TID 0000.0001) //      4 -ahebaabbbbbeihffgijiiiijpywnnpokkomkiiijmmmolkommmgffeeedccaaaaaabbcccefhmz..yjgeccccbaa--ahe
(PID.TID 0000.0001) //      3 ffhhrpjiiwyy............................yxotmjjjjgfeeeeeeddeffffheddeghjkyy..yqjgeddccdbbgffhh
(PID.TID 0000.0001) //      2 ............................................zyxxmgfeeefefgimnpwwwy..+zyy.....yyyyoiiihhz+.....
(PID.TID 0000.0001) //      1 ..............................................................................................
(PID.TID 0000.0001) //      0 qlloqz+.++++zzz++++++..................................................................+++qllo
(PID.TID 0000.0001) //     -1 slloorzzzzzzzzz+...++.....................................................yxxz........+zvusllo
(PID.TID 0000.0001) // =======================================================
(PID.TID 0000.0001) // END OF FIELD                                          =
(PID.TID 0000.0001) // =======================================================
(PID.TID 0000.0001) 
(PID.TID 0000.0001) // =======================================================
(PID.TID 0000.0001) // Field Model Ro_surf (ini_masks_etc) at iteration          1
(PID.TID 0000.0001) // CMIN =          1.000000000000000E+32
(PID.TID 0000.0001) // CMAX =         -1.000000000000000E+32
(PID.TID 0000.0001) // CINT =          0.000000000000000E+00
(PID.TID 0000.0001) // SYMBOLS (CMIN->CMAX): -abcdefghijklmnopqrstuvwxyz+
(PID.TID 0000.0001) //                  0.0: .
(PID.TID 0000.0001) // RANGE I (Lo:Hi:Step):(  -1:  92:   1)
(PID.TID 0000.0001) // RANGE J (Lo:Hi:Step):(  42:  -1:  -1)
(PID.TID 0000.0001) // RANGE K (Lo:Hi:Step):(   1:   1:   1)
(PID.TID 0000.0001) // =======================================================
(PID.TID 0000.0001) // =======================================================
(PID.TID 0000.0001) // END OF FIELD                                          =
(PID.TID 0000.0001) // =======================================================
(PID.TID 0000.0001) 
(PID.TID 0000.0001) // =======================================================
(PID.TID 0000.0001) // Field hFacC at iteration          1
(PID.TID 0000.0001) // CMIN =          1.000000000000000E+00
(PID.TID 0000.0001) // CMAX =          1.000000000000000E+00
(PID.TID 0000.0001) // CINT =          0.000000000000000E+00
(PID.TID 0000.0001) // SYMBOLS (CMIN->CMAX): -abcdefghijklmnopqrstuvwxyz+
(PID.TID 0000.0001) //                  0.0: .
(PID.TID 0000.0001) // RANGE I (Lo:Hi:Step):(  -1:  92:   1)
(PID.TID 0000.0001) // RANGE J (Lo:Hi:Step):(  42:  -1:  -1)
(PID.TID 0000.0001) // RANGE K (Lo:Hi:Step):(   1:   1:   1)
(PID.TID 0000.0001) // =======================================================
(PID.TID 0000.0001) // =======================================================
(PID.TID 0000.0001) // END OF FIELD                                          =
(PID.TID 0000.0001) // =======================================================
(PID.TID 0000.0001) 
(PID.TID 0000.0001) // =======================================================
(PID.TID 0000.0001) // Field hFacW at iteration          1
(PID.TID 0000.0001) // CMIN =          1.000000000000000E+00
(PID.TID 0000.0001) // CMAX =          1.000000000000000E+00
(PID.TID 0000.0001) // CINT =          0.000000000000000E+00
(PID.TID 0000.0001) // SYMBOLS (CMIN->CMAX): -abcdefghijklmnopqrstuvwxyz+
(PID.TID 0000.0001) //                  0.0: .
(PID.TID 0000.0001) // RANGE I (Lo:Hi:Step):(  -1:  92:   1)
(PID.TID 0000.0001) // RANGE J (Lo:Hi:Step):(  42:  -1:  -1)
(PID.TID 0000.0001) // RANGE K (Lo:Hi:Step):(   1:   1:   1)
(PID.TID 0000.0001) // =======================================================
(PID.TID 0000.0001) // =======================================================
(PID.TID 0000.0001) // END OF FIELD                                          =
(PID.TID 0000.0001) // =======================================================
(PID.TID 0000.0001) 
(PID.TID 0000.0001) // =======================================================
(PID.TID 0000.0001) // Field hFacS at iteration          1
(PID.TID 0000.0001) // CMIN =          1.000000000000000E+00
(PID.TID 0000.0001) // CMAX =          1.000000000000000E+00
(PID.TID 0000.0001) // CINT =          0.000000000000000E+00
(PID.TID 0000.0001) // SYMBOLS (CMIN->CMAX): -abcdefghijklmnopqrstuvwxyz+
(PID.TID 0000.0001) //                  0.0: .
(PID.TID 0000.0001) // RANGE I (Lo:Hi:Step):(  -1:  92:   1)
(PID.TID 0000.0001) // RANGE J (Lo:Hi:Step):(  42:  -1:  -1)
(PID.TID 0000.0001) // RANGE K (Lo:Hi:Step):(   1:   1:   1)
(PID.TID 0000.0001) // =======================================================
(PID.TID 0000.0001) // =======================================================
(PID.TID 0000.0001) // END OF FIELD                                          =
(PID.TID 0000.0001) // =======================================================
(PID.TID 0000.0001) 
(PID.TID 0000.0001) %MON surfExpanfCori_max           =   1.4265546244797E-04
(PID.TID 0000.0001) %MON surfExpanfCori_min           =  -1.4265546244797E-04
(PID.TID 0000.0001) %MON surfExpanfCori_mean          =  -1.2347858075529E-21
(PID.TID 0000.0001) %MON surfExpanfCori_sd            =   9.6599226301547E-05
(PID.TID 0000.0001) %MON surfExpanfCoriG_max          =   1.4151032568025E-04
(PID.TID 0000.0001) %MON surfExpanfCoriG_min          =  -1.4362679550910E-04
(PID.TID 0000.0001) %MON surfExpanfCoriG_mean         =  -3.5906698877274E-06
(PID.TID 0000.0001) %MON surfExpanfCoriG_sd           =   9.6548915696244E-05
(PID.TID 0000.0001) %MON surfExpanfCoriCos_max        =   1.4575362704741E-04
(PID.TID 0000.0001) %MON surfExpanfCoriCos_min        =   3.0322354601388E-05
(PID.TID 0000.0001) %MON surfExpanfCoriCos_mean       =   1.0288600773632E-04
(PID.TID 0000.0001) %MON surfExpanfCoriCos_sd         =   3.6784304327266E-05
(PID.TID 0000.0001) INI_CG2D: CG2D normalisation factor =  6.5682677425711703E-05
(PID.TID 0000.0001) 
(PID.TID 0000.0001)  MDS_READ_FIELD: opening global file: lev_t.bin
(PID.TID 0000.0001) // =======================================================
(PID.TID 0000.0001) // Field Initial Temperature at iteration          1
(PID.TID 0000.0001) // CMIN =         -1.900000000000000E+00
(PID.TID 0000.0001) // CMAX =          2.973338890075684E+01
(PID.TID 0000.0001) // CINT =          1.171606996324327E+00
(PID.TID 0000.0001) // SYMBOLS (CMIN->CMAX): -abcdefghijklmnopqrstuvwxyz+
(PID.TID 0000.0001) //                  0.0: .
(PID.TID 0000.0001) // RANGE I (Lo:Hi:Step):(   1:  90:   1)
(PID.TID 0000.0001) // RANGE J (Lo:Hi:Step):(  40:   1:  -1)
(PID.TID 0000.0001) // RANGE K (Lo:Hi:Step):(   1:   1:   1)
(PID.TID 0000.0001) // =======================================================
(PID.TID 0000.0001) K =   1
(PID.TID 0000.0001)                I=10      I=20      I=30      I=40      I=50      I=60      I=70      I=80      I=90
(PID.TID 0000.0001) |--J--|123456789|123456789|123456789|123456789|123456789|123456789|123456789|123456789|123456789|
(PID.TID 0000.0001)     40 bccdd.baa----abdedd..................................................................bbbbb
(PID.TID 0000.0001)     39 ccdddddccbbbaa...ed.....................................................----........bbbbbb
(PID.TID 0000.0001)     38 fffgfedeedddc...........................................................-----......cbbbcde
(PID.TID 0000.0001)     37 ghh..................................................................bc...bbc...edeed.defg
(PID.TID 0000.0001)     36 hh.........................................ddcb....................dcccbabccdd.eefghhihhih
(PID.TID 0000.0001)     35 hh.................................aaab..dddeddd...ffggg...........ccc....ddeeeffghijjjjih
(PID.TID 0000.0001)     34 ...................................babb.deeeeeee.ffffgghh..................ccdffghijkkkj..
(PID.TID 0000.0001)     33 ....................................accdddeeeeefffffgghhiii.................bcfijkkllllkk.
(PID.TID 0000.0001)     32 ....................................bdddeffgffgghhhhhiiijjj................dccglmnmmmmlll.
(PID.TID 0000.0001)     31 ....................................fghiiiijjjjjjkkkkklllkk..............ikkjjmooooonnmm..
(PID.TID 0000.0001)     30 ...................................mmmnmmmmmmmmmmmmmnnnnnmm............moqrrrqrqqqpppooo..
(PID.TID 0000.0001)     29 .................................pqqqqqpppppppppoppoppppponm...........ssssssrrrrrqqqqpp..
(PID.TID 0000.0001)     28 ...............................prssssrrrsssrrrrrrrrrrrrrqqpoo.........uttssstssrssrrrqqq..
(PID.TID 0000.0001)     27 ..............vv..............stuttuuuuutuuuuuuuuuuttttssrrqqq...stuu.vvvuuuuutttttsss....
(PID.TID 0000.0001)     26 ..............vvv...........uuvvvvvwwwwwwwwvvvvvvvvvuuutttsssttv.uuvxxwwwwwwvvvvuuttsr....
(PID.TID 0000.0001)     25 ..............wwwx...xxx...vvvxxxxxyyxxxxxxxxxwwwwwvvvvvuuuuuvwwx...xxxxxxwwwwwwvvutsr....
(PID.TID 0000.0001)     24 ............wwwwxyy.xxyy...wxx.yyyyyyyyyyyxxxxxxxxwwwwwwwvvwwxxyywww.xxxxxxxxxxwwwvvur....
(PID.TID 0000.0001)     23 ............xxxyyyz.xyyy...xxx..yyyyzzyyyyyyyyxxxxxxxxxwwwwwxxxwwwwwx....vwxxxxwwwwwvu....
(PID.TID 0000.0001)     22 w...........xxyyyzyyyyyz...xx.yyzzzzzzzzzzzzzyyzyyyyyyxxwwxxxxwvvvwwxw......yyyyxxxxxxwxxw
(PID.TID 0000.0001)     21 xxx........xxxxyyzzzzzzz+.....zyzzzzzzz++zzzzyyyyyyyyxxwvvwwwwvvvvvvvu........yyyyyyyyyxxx
(PID.TID 0000.0001)     20 xww.......xyyyyxyyzzzzzz+......z.zzzzz+++zzzzzzyyyyyxxxxwvwxwvuuuuuuut.........yyyyxxxxwww
(PID.TID 0000.0001)     19 vvv.......yyyyxwwxyzyyzzzzz...zzz.....++++++z++z+zzzyyyyxxxxwwvvvvvvvu...........yyxxxwwww
(PID.TID 0000.0001)     18 uut.......zzyyywwxyzyyyyzzyzzzzzz...z+z++++zz+++++++zzzyyyyxxwwwvvvvvtt..........yyxxwvvwv
(PID.TID 0000.0001)     17 uus.......z.yyyyyyxyzzyyyyyyyzz.....yzzzzzzzzzzzzzzzzzzyyyyxxwwvuuvvuut.........yyyxxwttvu
(PID.TID 0000.0001)     16 utr......yy.zyyyyxxxxxxxwxxxxy.......yyyyyyyyyyyyyyyyyyyyyyyxxwvvvuuutts........xyyyxwvuuu
(PID.TID 0000.0001)     15 ttrr....xxx.xxxwxwwwwvwwvvvww.........xwxxxxxxxxxxxxxxxxxyyyxwwwvvuttssrr......wxxxxxwwvuu
(PID.TID 0000.0001)     14 ttsq....xyxwwxwvwwwvutuuuuuuu.........wwvwwwwvwvvwwwvwvvwwwwwwvvvuuutssrr.....vwwwwwwwvvvu
(PID.TID 0000.0001)     13 tttr....wwwvvvtttuuuutttssttt.........vvvuuuuuuutttttuuuuuvwwwuuuttttssrr....uvvvvvvvvvvut
(PID.TID 0000.0001)     12 sssssstttutssssrrrrrstrqqrrssqqrrq....uuttssssrrrrrrrrrrrstttssssrssrrqp.....uuuttssttssss
(PID.TID 0000.0001)     11 poprsssrqqqqqrqppooopqpoppppppppppp..sssrrr.rqpppqqqqppppqqqoppqqqqrqqpp....prsrqqqqqppppq
(PID.TID 0000.0001)     10 lllmoooonmnnmnnnnmmmmmmlmmlllmnnnnon.qqqppp.ppppppooooooooonmnnnonnooooo..nmoponnmnnnnnmll
(PID.TID 0000.0001)      9 ihhiiiihhhhhhiiihiiiiihhhiiiijjkkmnllnnnnn.mmmmnnnnmmmmnnmmlklllllklllll.mllmmllkjiijjihhi
(PID.TID 0000.0001)      8 eeeeeeeedefgggffeeffggffffggghiiiijjijklklkkkkkkkklllkkkkjjiiijkjjjjjjkj.kkjjiihggffffedde
(PID.TID 0000.0001)      7 cccccddeedddefeddddddddddefeefffffgggghiiiiiijjjihhgggghhhhhghhhhhhhiiiihiihhgfeddddddcccc
(PID.TID 0000.0001)      6 abbcccddcccccdddddccdddddddccddddddeeeeffggggghhgeddddddeeeeeeefggggghggggffeedccbbbbbbbba
(PID.TID 0000.0001)      5 bbbcccccccccccccccccccccbbccccdddddddcccddeeddeedcbbbbbbccccccdddeeeeeddddddccbbbbaaaaaaab
(PID.TID 0000.0001)      4 bbbbbbbaaabbbbbbbbbbbbaabbabbbbcbbbbbbbbbbbbbbbbbbbabbaaabbbbbbbbbbbbbbbbb..a--aaabbbaaabb
(PID.TID 0000.0001)      3 bbbbaaa-a-............................bbaaaaaaaaaaaaaaaaaaaaaaaaaaaaaaaab..aaaaaaaabbbaaaa
(PID.TID 0000.0001)      2 ..........................................baaaaaaaaaaaa-------aa..aaaa.....aaaaaaaaaaaa...
(PID.TID 0000.0001)      1 ..........................................................................................
(PID.TID 0000.0001) // =======================================================
(PID.TID 0000.0001) // END OF FIELD                                          =
(PID.TID 0000.0001) // =======================================================
(PID.TID 0000.0001) 
(PID.TID 0000.0001)  MDS_READ_FIELD: opening global file: lev_s.bin
(PID.TID 0000.0001) // =======================================================
(PID.TID 0000.0001) // Field Initial Salinity at iteration          1
(PID.TID 0000.0001) // CMIN =          2.975276947021484E+01
(PID.TID 0000.0001) // CMAX =          3.747562789916992E+01
(PID.TID 0000.0001) // CINT =          2.860317936650029E-01
(PID.TID 0000.0001) // SYMBOLS (CMIN->CMAX): -abcdefghijklmnopqrstuvwxyz+
(PID.TID 0000.0001) //                  0.0: .
(PID.TID 0000.0001) // RANGE I (Lo:Hi:Step):(   1:  90:   1)
(PID.TID 0000.0001) // RANGE J (Lo:Hi:Step):(  40:   1:  -1)
(PID.TID 0000.0001) // RANGE K (Lo:Hi:Step):(   1:   1:   1)
(PID.TID 0000.0001) // =======================================================
(PID.TID 0000.0001) K =   1
(PID.TID 0000.0001)                I=10      I=20      I=30      I=40      I=50      I=60      I=70      I=80      I=90
(PID.TID 0000.0001) |--J--|123456789|123456789|123456789|123456789|123456789|123456789|123456789|123456789|123456789|
(PID.TID 0000.0001)     40 qrrrr.oonnooopqtutt..................................................................mnnop
(PID.TID 0000.0001)     39 rssrrrrrrrqqpn...ut.....................................................mmmm........opqqqr
(PID.TID 0000.0001)     38 ssrrqqqqrrqpo...........................................................lkkll......onoqrrs
(PID.TID 0000.0001)     37 ssr..................................................................hg...lln...qppqr.rrrs
(PID.TID 0000.0001)     36 rr.........................................lkji....................feeegikmoop.pqrssssssss
(PID.TID 0000.0001)     35 rr.................................kkkk..lllllki...jijjj...........aa-....opqrrrrrrrssttss
(PID.TID 0000.0001)     34 ...................................jlll.kklllllk.ijkkkjih..................hlpqrqrrsstts..
(PID.TID 0000.0001)     33 ....................................iklkkkkkkkkkjkkjjjjjjii.................jmprrsstttttt.
(PID.TID 0000.0001)     32 ....................................iklllkllllllllkkkkkkkji................gilpstuuttuuut.
(PID.TID 0000.0001)     31 ....................................lmnonnnnoooonnmmmmllkjj..............loopqtvvvuuuuuu..
(PID.TID 0000.0001)     30 ...................................pppppppqqqqpppoooonnmlkk............ptvxwwvvwvvvvvvvu..
(PID.TID 0000.0001)     29 .................................pqqrqqqqqqrrrqqppqqqpponmll...........vxxxxxxwwwwwxwwxw..
(PID.TID 0000.0001)     28 ...............................prrrrrqqrrrrrsrrsrssssssrqonmm.........wxxxxxxxyyyyyyyyxx..
(PID.TID 0000.0001)     27 ..............xx..............prrrrrrrrrssssssstttssssssrqpoop...uwww.wwxxxyyy++zzzzyy....
(PID.TID 0000.0001)     26 ..............wxx...........ppqrrrrrrsssrrstsstttssrrrrrrrqppqqp.wwwvvwwwwwxyy+++zzyxw....
(PID.TID 0000.0001)     25 ..............wxxv...kkk...ooopqrrrrrssrrrrrrrssssqqpppppppppppoo...vvutuuvvwxyyyxxvvu....
(PID.TID 0000.0001)     24 ............uvvwwur.lmlk...nmm.pqqqqrrrrrqqqqrrqqrpppppooooonmmmnooo.uuuuuuttuvvvuvuut....
(PID.TID 0000.0001)     23 ............vvuvtqp.lmml...mln..ppppqpqppppppqpppppppppqppponnnnnoopm....xvuuuvvvvuuut....
(PID.TID 0000.0001)     22 r...........vuttsqqpnppn...mm.oppqqrrqqqqqqppppqqrrrqqqrrppppoopooomjj......uuvvvvvuttssrr
(PID.TID 0000.0001)     21 qmm........ttsssssssrsqon.....opqqqqqqqrrrrqqqssssssrrrrrrrrpqqqppomll........tvvvvuttssrr
(PID.TID 0000.0001)     20 sqq.......sttssrrsrrrrpol......p.qrqpqrrrrrrrstttttsssrrsssrqrrrrqqqpo.........wwwvvvuuutt
(PID.TID 0000.0001)     19 tsr.......ssssrrrrpppppnmmm...oqq.....qrqqsrrstttuuuttssttssrrssrrrrqq...........wwwvuvvvv
(PID.TID 0000.0001)     18 wut.......ssrrrrrqppppppppoooorrr...poqqqprrrttttuuutuuuuuutttttttutsss..........yyxwwxwxx
(PID.TID 0000.0001)     17 wwu.......s.rrrrrrqppppqqqqqqqr.....rrsrqrsssuusrtuuuvvvwwvvvuuuuutttss.........xyzyyyyxxx
(PID.TID 0000.0001)     16 vvt......ss.qrrssrqrqpqrrrrrrr.......ssrrstsstusrsuuuvwwwwxxwwvvvuttttsr........yz+zzzxwww
(PID.TID 0000.0001)     15 utss....stt.rrssstttsrrsrstsr.........ssstttssttsuuttuvvvvwxwwwwwuttsssrr......xyyyyxyyxwv
(PID.TID 0000.0001)     14 utts....sstrrssstuuuuuuuuuutt.........stttuutttttttuttttttuvvvvvvutsrqrrr.....vxxwwwwxwvwv
(PID.TID 0000.0001)     13 uuut....ttttttttuuuuuvtuuuuuu.........ttttuutttttttuutsssstttttstsqrqqppp....uwwwvuvvvutvv
(PID.TID 0000.0001)     12 ttttttttttttttttttttttssuuuuutuuut....tttttttttttsssssrrrrrrrqqqqqppppoo.....rvvuuttttttuu
(PID.TID 0000.0001)     11 rqsttttttttuuttttsssssrrstttttttsss..ttttts.tsssrrrrqqqqqppppoonnooooooo....oruttttsssrqrs
(PID.TID 0000.0001)     10 pppqrssrqqrqpqrssrrqqqqqqrrrrrrrrrrs.sssssr.rssrrqqpppppppooooonnnoooonn..moqrrrqqqqqqqqqq
(PID.TID 0000.0001)      9 oonooooooooonnnooooooooooppppppqqqqqrrrqrq.pppqqqqqppppppppppoooooooooll.lmoqqqqppooooopoo
(PID.TID 0000.0001)      8 nnnoonooooooonnnnnnnoooonoonoooppopqqqqqqqppopppqqqpppppppppppppppooopon.lnopppoooonnnnooo
(PID.TID 0000.0001)      7 ooooooooooopponnnooooooonnnnnonnooooooooopppppppoooooooooopppppppppoopqnnmnoooonnnonnnnnno
(PID.TID 0000.0001)      6 oooonnoonnnnooooooooooooonnnnnnnnnnnnnnnnoooopppooooooooooooooppppppppppoooooooonnnnnmnnnn
(PID.TID 0000.0001)      5 oooonnnnnnnnnnnnnnnnnoooooonnnnnnonnnnnnnnnoooooooooooonnnnnnooooooopoooonoooonnnnnnnooooo
(PID.TID 0000.0001)      4 oooonnnooonnnnnnnnnnnnnnoooooonnnooooonnnooooooooppponnnnmmmnnnnmnnoonnnnn..nnnooooooooooo
(PID.TID 0000.0001)      3 ooonnnnnnn............................nnoooooonnooooonnnnnnnoonnnnnnnnmmm..ooopooooooooooo
(PID.TID 0000.0001)      2 ..........................................pppooooonnnnnnoooppppo..nnnn.....qqqpppoooooo...
(PID.TID 0000.0001)      1 ..........................................................................................
(PID.TID 0000.0001) // =======================================================
(PID.TID 0000.0001) // END OF FIELD                                          =
(PID.TID 0000.0001) // =======================================================
(PID.TID 0000.0001) 
(PID.TID 0000.0001) Start initial hydrostatic pressure computation
(PID.TID 0000.0001) Pressure is predetermined for buoyancyRelation OCEANIC
(PID.TID 0000.0001) 
(PID.TID 0000.0001)  MDS_READ_FIELD: opening global file: trenberth_taux.bin
(PID.TID 0000.0001)  MDS_READ_FIELD: opening global file: trenberth_tauy.bin
(PID.TID 0000.0001)  MDS_READ_FIELD: opening global file: ncep_qnet.bin
(PID.TID 0000.0001)  MDS_READ_FIELD: opening global file: lev_sst.bin
(PID.TID 0000.0001)  MDS_READ_FIELD: opening global file: lev_sss.bin
(PID.TID 0000.0001) // =======================================================
(PID.TID 0000.0001) // Model current state
(PID.TID 0000.0001) // =======================================================
(PID.TID 0000.0001) 
S/R EXTERNAL_FIELDS_LOAD: Reading new data:   12    1         0  0.000000000000E+00
(PID.TID 0000.0001)  MDS_READ_FIELD: opening global file: trenberth_taux.bin
(PID.TID 0000.0001)  MDS_READ_FIELD: opening global file: trenberth_taux.bin
(PID.TID 0000.0001)  MDS_READ_FIELD: opening global file: trenberth_tauy.bin
(PID.TID 0000.0001)  MDS_READ_FIELD: opening global file: trenberth_tauy.bin
(PID.TID 0000.0001)  MDS_READ_FIELD: opening global file: ncep_qnet.bin
(PID.TID 0000.0001)  MDS_READ_FIELD: opening global file: ncep_qnet.bin
(PID.TID 0000.0001)  MDS_READ_FIELD: opening global file: lev_sst.bin
(PID.TID 0000.0001)  MDS_READ_FIELD: opening global file: lev_sst.bin
(PID.TID 0000.0001)  MDS_READ_FIELD: opening global file: lev_sss.bin
(PID.TID 0000.0001)  MDS_READ_FIELD: opening global file: lev_sss.bin
time,SST,SSS,fu,fv,Q,E-P,i0,i1,a,b =   0.0000E+00  5.3151E-02  3.4364E+01 -4.0500E-02 -6.3753E-02  2.6510E+02  0.0000E+00    12     1  5.0000E-01  5.0000E-01
time,fu0,fu1,fu =   0.0000E+00 -4.5368E-02 -3.5633E-02 -4.0500E-02  5.000000000000000E-01  5.000000000000000E-01
(PID.TID 0000.0001)  MDS_READ_FIELD: opening file: xx_hfluxm.0000000000.001.001.data
 cg2d: Sum(rhs),rhsMax =   1.47867829092263E-14  2.54952604282385E+00
time,SST,SSS,fu,fv,Q,E-P,i0,i1,a,b =   8.6400E+04  1.1350E-01  3.4387E+01 -4.0176E-02 -6.3320E-02  2.6514E+02  0.0000E+00    12     1  5.3333E-01  4.6667E-01
time,fu0,fu1,fu =   8.6400E+04 -4.5368E-02 -3.5633E-02 -4.0176E-02  5.333333333333333E-01  4.666666666666667E-01
 cg2d: Sum(rhs),rhsMax =   1.11299858218672E-14  2.62443215722193E+00
time,SST,SSS,fu,fv,Q,E-P,i0,i1,a,b =   1.7280E+05  1.7385E-01  3.4410E+01 -3.9851E-02 -6.2886E-02  2.6519E+02  0.0000E+00    12     1  5.6667E-01  4.3333E-01
time,fu0,fu1,fu =   1.7280E+05 -4.5368E-02 -3.5633E-02 -3.9851E-02  5.666666666666667E-01  4.333333333333333E-01
 cg2d: Sum(rhs),rhsMax =  -4.06480404890885E-14  2.39923446840278E+00
time,SST,SSS,fu,fv,Q,E-P,i0,i1,a,b =   2.5920E+05  2.3421E-01  3.4434E+01 -3.9527E-02 -6.2453E-02  2.6523E+02  0.0000E+00    12     1  6.0000E-01  4.0000E-01
time,fu0,fu1,fu =   2.5920E+05 -4.5368E-02 -3.5633E-02 -3.9527E-02  6.000000000000000E-01  4.000000000000000E-01
 cg2d: Sum(rhs),rhsMax =  -1.38500322321988E-14  2.21574359151329E+00
time,SST,SSS,fu,fv,Q,E-P,i0,i1,a,b =   3.4560E+05  2.9456E-01  3.4457E+01 -3.9202E-02 -6.2020E-02  2.6528E+02  0.0000E+00    12     1  6.3333E-01  3.6667E-01
time,fu0,fu1,fu =   3.4560E+05 -4.5368E-02 -3.5633E-02 -3.9202E-02  6.333333333333333E-01  3.666666666666667E-01
 cg2d: Sum(rhs),rhsMax =   3.63459262686661E-14  2.00995911954326E+00
time,SST,SSS,fu,fv,Q,E-P,i0,i1,a,b =   4.3200E+05  3.5491E-01  3.4481E+01 -3.8878E-02 -6.1587E-02  2.6532E+02  0.0000E+00    12     1  6.6667E-01  3.3333E-01
time,fu0,fu1,fu =   4.3200E+05 -4.5368E-02 -3.5633E-02 -3.8878E-02  6.666666666666666E-01  3.333333333333334E-01
 cg2d: Sum(rhs),rhsMax =  -4.51999548900517E-14  1.78612610533026E+00
time,SST,SSS,fu,fv,Q,E-P,i0,i1,a,b =   5.1840E+05  4.1526E-01  3.4504E+01 -3.8553E-02 -6.1154E-02  2.6537E+02  0.0000E+00    12     1  7.0000E-01  3.0000E-01
time,fu0,fu1,fu =   5.1840E+05 -4.5368E-02 -3.5633E-02 -3.8553E-02  7.000000000000000E-01  3.000000000000000E-01
 cg2d: Sum(rhs),rhsMax =  -2.44804176929847E-14  1.55419822260071E+00
time,SST,SSS,fu,fv,Q,E-P,i0,i1,a,b =   6.0480E+05  4.7561E-01  3.4527E+01 -3.8229E-02 -6.0721E-02  2.6541E+02  0.0000E+00    12     1  7.3333E-01  2.6667E-01
time,fu0,fu1,fu =   6.0480E+05 -4.5368E-02 -3.5633E-02 -3.8229E-02  7.333333333333333E-01  2.666666666666667E-01
 cg2d: Sum(rhs),rhsMax =  -5.29160049111965E-14  1.32823755952736E+00
time,SST,SSS,fu,fv,Q,E-P,i0,i1,a,b =   6.9120E+05  5.3596E-01  3.4551E+01 -3.7904E-02 -6.0288E-02  2.6546E+02  0.0000E+00    12     1  7.6667E-01  2.3333E-01
time,fu0,fu1,fu =   6.9120E+05 -4.5368E-02 -3.5633E-02 -3.7904E-02  7.666666666666667E-01  2.333333333333333E-01
 cg2d: Sum(rhs),rhsMax =  -2.97400992721464E-14  1.15613808765430E+00
time,SST,SSS,fu,fv,Q,E-P,i0,i1,a,b =   7.7760E+05  5.9632E-01  3.4574E+01 -3.7580E-02 -5.9855E-02  2.6550E+02  0.0000E+00    12     1  8.0000E-01  2.0000E-01
time,fu0,fu1,fu =   7.7760E+05 -4.5368E-02 -3.5633E-02 -3.7580E-02  8.000000000000000E-01  2.000000000000000E-01
 cg2d: Sum(rhs),rhsMax =   4.08700850940136E-14  1.08384893708049E+00
(PID.TID 0000.0001) %CHECKPOINT        10 ckptB
(PID.TID 0000.0001)  MDS_READ_FIELD: opening global file: bathymetry.bin
(PID.TID 0000.0001) // =======================================================
(PID.TID 0000.0001) // Field Model R_low (ini_masks_etc) at iteration          1
(PID.TID 0000.0001) // CMIN =         -5.200000000000000E+03
(PID.TID 0000.0001) // CMAX =         -1.200000000000000E+02
(PID.TID 0000.0001) // CINT =          1.881481481481482E+02
(PID.TID 0000.0001) // SYMBOLS (CMIN->CMAX): -abcdefghijklmnopqrstuvwxyz+
(PID.TID 0000.0001) //                  0.0: .
(PID.TID 0000.0001) // RANGE I (Lo:Hi:Step):(  -1:  92:   1)
(PID.TID 0000.0001) // RANGE J (Lo:Hi:Step):(  42:  -1:  -1)
(PID.TID 0000.0001) // RANGE K (Lo:Hi:Step):(   1:   1:   1)
(PID.TID 0000.0001) // =======================================================
(PID.TID 0000.0001) K =   1
(PID.TID 0000.0001) //                I=8       I=18      I=28      I=38      I=48      I=58      I=68      I=78      I=88
(PID.TID 0000.0001) // |--J--|101234567|901234567|901234567|901234567|901234567|901234567|901234567|901234567|901234567|9012
(PID.TID 0000.0001) //     42 ............................................zyxxmgfeeefefgimnpwwwy..+zyy.....yyyyoiiihhz+.....
(PID.TID 0000.0001) //     41 ..............................................................................................
(PID.TID 0000.0001) //     40 qlloqz+.++++zzz++++++..................................................................+++qllo
(PID.TID 0000.0001) //     39 slloorzzzzzzzzz+...++.....................................................yxxz........+zvusllo
(PID.TID 0000.0001) //     38 mqpporzzzzzz+++...........................................................zxxy+......zyyvsmqpp
(PID.TID 0000.0001) //     37 mmmuz..................................................................++...zy+...yttyy.+smmmu
(PID.TID 0000.0001) //     36 utt+.........................................mm++....................+++++++znmm.yoowssvuyutt+
(PID.TID 0000.0001) //     35 ++++.................................+zzz..rrmmkk+...+gghn...........+++....+nmiijlsoopuww++++
(PID.TID 0000.0001) //     34 .....................................+vvy.ggqyxv+y.ccdffhim..................+nihhikkihhm+....
(PID.TID 0000.0001) //     33 +.....................................uuz---h------aaabdefin+.................zqvddflifffw+...
(PID.TID 0000.0001) //     32 +.....................................+t----h---------acdfgnn................+++gdffkofffm+...
(PID.TID 0000.0001) //     31 ......................................-----ad--------abddegil..............qbaafccdhqqgddm....
(PID.TID 0000.0001) //     30 .....................................f----b--b------------abd............zfbb--fbcdosjfddi....
(PID.TID 0000.0001) //     29 ...................................tu----e---fjg----------abdf...........eaac--abfmijaadgi....
(PID.TID 0000.0001) //     28 .................................+xfl-------------------bdedefi.........qbaa---aemfbbaaejz....
(PID.TID 0000.0001) //     27 ................xx..............+wfgfpf--------eallc---bbbccefgi...+++x.qb-----akfa---ah......
(PID.TID 0000.0001) //     26 ................xnn...........+vd---dna------a--aicfna---aabdfghku.++xssuy-----bgca---ci......
(PID.TID 0000.0001) //     25 ................iiik...oo+...+ivd---doaa-bc--ilglf--aa---aabcghhkll...ssum+xaaacjbaabdjk......
(PID.TID 0000.0001) //     24 ..............xnheeft.kkk+...uii.aagdm----aa-----a-------bbbcdefjljjju.zummwwbbchba--abi......
(PID.TID 0000.0001) //     23 ..............xgheefp.iikw...uuw..fihi----fed-----eaaa--bbbbcdfflkjiiiq....zykccefa--abd......
(PID.TID 0000.0001) //     22 uss...........bbelffslffkk...zz.wqkeeqoheccdfa-----egabaabcdddegghliiiqq......xeeehheehccquss.
(PID.TID 0000.0001) //     21 bbeir........nbbcdjhqdddiiz.....wqfeelgghmedea-----bibbcddddddefghklnqoo........ieeflhgcccbbei
(PID.TID 0000.0001) //     20 bbder.......ldcccdgkccccidd......z.vkkktqqhegg----aaacddddddddefghkiiijl.........nhfa--gfcbbde
(PID.TID 0000.0001) //     19 cdaaf.......kddosggpaaaibbccx...+z+.....r+nlec---agaaabcddccddefikfgffff...........d---cjhcdaa
(PID.TID 0000.0001) //     18 d---d.......kglggvliaaaibbcaaeaiv++...qqzolhecccfdgkaabcdfccdeeikgfgffdd+..........d---djhd---
(PID.TID 0000.0001) //     17 c---c.......l.feewlfaaaoaa----aiv.....qqnllslmlofcdbaacceffffhhligfigeddj.........hd---ckhc---
(PID.TID 0000.0001) //     16 ba--c......tn.ddgnlfdaaqa-----lv.......vnllvllnwv--accivomfffhilhgfffeddjf........re--aeigba--
(PID.TID 0000.0001) //     15 b--dpz....+ll.ccdfhmdddlc----av.........otsxoomv---abccddfihgijkhgfffeejfff......+fd---ckfb--d
(PID.TID 0000.0001) //     14 c--mcl....weeqbaafilkfend--eagy.........hhstofft----aacdheefijkmjhhjijiffff.....zlfdaaadlfc--m
(PID.TID 0000.0001) //     13 cclbbg....nccobaaiddgkffqrqeaal.........eeutqfft------aaceeffhijlkjhhigfffq....+jgfodccflhcclb
(PID.TID 0000.0001) //     12 hgaaacw+iiicclemhdddfliigfdcaabfaaaz....ccsurqpc--------abcifffikiiihhggff.....kbbbdfffglhhgaa
(PID.TID 0000.0001) //     11 gcaaacbbifccennhbbdefnihgfdccaaaa----..dcccnt.ncab-------aabcdfilhggjiggff....l---abcefjlkgcaa
(PID.TID 0000.0001) //     10 fcaaccbdaacfrllfbbdegkmmljhfdddba----d.dcccfx.nyrebaba----abcdgilhfeegijgi..+w--aa-abcfilkfcaa
(PID.TID 0000.0001) //      9 ffcdcccaaaoqsolfdeehikihhlllgfedcccccdmdcccf.vyfaaaaaaaa--abdehmjhfeeefglv.++w-----abcdfklffcd
(PID.TID 0000.0001) //      8 iffjklcaafddffeeccvznkfffhhhlkjifgjkkfeeddfsyvcaaaaaaccdcccdfgjligedbbceg+.++xffn--cfddefliffj
(PID.TID 0000.0001) //      7 mqnnbbkkf--bmbaabbgtykfddeffeeddccdfhlffeelfbaaaaaacddeghgjgjlligeddaaabedfiiiiiisvkfkecchmqnn
(PID.TID 0000.0001) //      6 ca-------------aabcelttdddedddddccccdfkkiiffbaaaabcdgimmkmefecaaabbbaaabbdfiiiiispmmregifcca--
(PID.TID 0000.0001) //      5 -------a-------aaccehhhiddeddddddcccdfiikomodddefffmlmigedccaaaaaaaababbbdfiijsqgeccccbaa-----
(PID.TID 0000.0001) //      4 -ahebaabbbbbeihffgijiiiijpywnnpokkomkiiijmmmolkommmgffeeedccaaaaaabbcccefhmz..yjgeccccbaa--ahe
(PID.TID 0000.0001) //      3 ffhhrpjiiwyy............................yxotmjjjjgfeeeeeeddeffffheddeghjkyy..yqjgeddccdbbgffhh
(PID.TID 0000.0001) //      2 ............................................zyxxmgfeeefefgimnpwwwy..+zyy.....yyyyoiiihhz+.....
(PID.TID 0000.0001) //      1 ..............................................................................................
(PID.TID 0000.0001) //      0 qlloqz+.++++zzz++++++..................................................................+++qllo
(PID.TID 0000.0001) //     -1 slloorzzzzzzzzz+...++.....................................................yxxz........+zvusllo
(PID.TID 0000.0001) // =======================================================
(PID.TID 0000.0001) // END OF FIELD                                          =
(PID.TID 0000.0001) // =======================================================
(PID.TID 0000.0001) 
(PID.TID 0000.0001) // =======================================================
(PID.TID 0000.0001) // Field Model Ro_surf (ini_masks_etc) at iteration          1
(PID.TID 0000.0001) // CMIN =          1.000000000000000E+32
(PID.TID 0000.0001) // CMAX =         -1.000000000000000E+32
(PID.TID 0000.0001) // CINT =          0.000000000000000E+00
(PID.TID 0000.0001) // SYMBOLS (CMIN->CMAX): -abcdefghijklmnopqrstuvwxyz+
(PID.TID 0000.0001) //                  0.0: .
(PID.TID 0000.0001) // RANGE I (Lo:Hi:Step):(  -1:  92:   1)
(PID.TID 0000.0001) // RANGE J (Lo:Hi:Step):(  42:  -1:  -1)
(PID.TID 0000.0001) // RANGE K (Lo:Hi:Step):(   1:   1:   1)
(PID.TID 0000.0001) // =======================================================
(PID.TID 0000.0001) // =======================================================
(PID.TID 0000.0001) // END OF FIELD                                          =
(PID.TID 0000.0001) // =======================================================
(PID.TID 0000.0001) 
(PID.TID 0000.0001) // =======================================================
(PID.TID 0000.0001) // Field hFacC at iteration          1
(PID.TID 0000.0001) // CMIN =          1.000000000000000E+00
(PID.TID 0000.0001) // CMAX =          1.000000000000000E+00
(PID.TID 0000.0001) // CINT =          0.000000000000000E+00
(PID.TID 0000.0001) // SYMBOLS (CMIN->CMAX): -abcdefghijklmnopqrstuvwxyz+
(PID.TID 0000.0001) //                  0.0: .
(PID.TID 0000.0001) // RANGE I (Lo:Hi:Step):(  -1:  92:   1)
(PID.TID 0000.0001) // RANGE J (Lo:Hi:Step):(  42:  -1:  -1)
(PID.TID 0000.0001) // RANGE K (Lo:Hi:Step):(   1:   1:   1)
(PID.TID 0000.0001) // =======================================================
(PID.TID 0000.0001) // =======================================================
(PID.TID 0000.0001) // END OF FIELD                                          =
(PID.TID 0000.0001) // =======================================================
(PID.TID 0000.0001) 
(PID.TID 0000.0001) // =======================================================
(PID.TID 0000.0001) // Field hFacW at iteration          1
(PID.TID 0000.0001) // CMIN =          1.000000000000000E+00
(PID.TID 0000.0001) // CMAX =          1.000000000000000E+00
(PID.TID 0000.0001) // CINT =          0.000000000000000E+00
(PID.TID 0000.0001) // SYMBOLS (CMIN->CMAX): -abcdefghijklmnopqrstuvwxyz+
(PID.TID 0000.0001) //                  0.0: .
(PID.TID 0000.0001) // RANGE I (Lo:Hi:Step):(  -1:  92:   1)
(PID.TID 0000.0001) // RANGE J (Lo:Hi:Step):(  42:  -1:  -1)
(PID.TID 0000.0001) // RANGE K (Lo:Hi:Step):(   1:   1:   1)
(PID.TID 0000.0001) // =======================================================
(PID.TID 0000.0001) // =======================================================
(PID.TID 0000.0001) // END OF FIELD                                          =
(PID.TID 0000.0001) // =======================================================
(PID.TID 0000.0001) 
(PID.TID 0000.0001) // =======================================================
(PID.TID 0000.0001) // Field hFacS at iteration          1
(PID.TID 0000.0001) // CMIN =          1.000000000000000E+00
(PID.TID 0000.0001) // CMAX =          1.000000000000000E+00
(PID.TID 0000.0001) // CINT =          0.000000000000000E+00
(PID.TID 0000.0001) // SYMBOLS (CMIN->CMAX): -abcdefghijklmnopqrstuvwxyz+
(PID.TID 0000.0001) //                  0.0: .
(PID.TID 0000.0001) // RANGE I (Lo:Hi:Step):(  -1:  92:   1)
(PID.TID 0000.0001) // RANGE J (Lo:Hi:Step):(  42:  -1:  -1)
(PID.TID 0000.0001) // RANGE K (Lo:Hi:Step):(   1:   1:   1)
(PID.TID 0000.0001) // =======================================================
(PID.TID 0000.0001) // =======================================================
(PID.TID 0000.0001) // END OF FIELD                                          =
(PID.TID 0000.0001) // =======================================================
(PID.TID 0000.0001) 
(PID.TID 0000.0001) %MON surfExpanfCori_max           =   1.4265546244797E-04
(PID.TID 0000.0001) %MON surfExpanfCori_min           =  -1.4265546244797E-04
(PID.TID 0000.0001) %MON surfExpanfCori_mean          =  -1.2347858075529E-21
(PID.TID 0000.0001) %MON surfExpanfCori_sd            =   9.6599226301547E-05
(PID.TID 0000.0001) %MON surfExpanfCoriG_max          =   1.4151032568025E-04
(PID.TID 0000.0001) %MON surfExpanfCoriG_min          =  -1.4362679550910E-04
(PID.TID 0000.0001) %MON surfExpanfCoriG_mean         =  -3.5906698877274E-06
(PID.TID 0000.0001) %MON surfExpanfCoriG_sd           =   9.6548915696244E-05
(PID.TID 0000.0001) %MON surfExpanfCoriCos_max        =   1.4575362704741E-04
(PID.TID 0000.0001) %MON surfExpanfCoriCos_min        =   3.0322354601388E-05
(PID.TID 0000.0001) %MON surfExpanfCoriCos_mean       =   1.0288600773632E-04
(PID.TID 0000.0001) %MON surfExpanfCoriCos_sd         =   3.6784304327266E-05
(PID.TID 0000.0001) INI_CG2D: CG2D normalisation factor =  6.5682677425711703E-05
(PID.TID 0000.0001) 
(PID.TID 0000.0001)  MDS_READ_FIELD: opening global file: lev_t.bin
(PID.TID 0000.0001) // =======================================================
(PID.TID 0000.0001) // Field Initial Temperature at iteration          1
(PID.TID 0000.0001) // CMIN =         -1.900000000000000E+00
(PID.TID 0000.0001) // CMAX =          2.973338890075684E+01
(PID.TID 0000.0001) // CINT =          1.171606996324327E+00
(PID.TID 0000.0001) // SYMBOLS (CMIN->CMAX): -abcdefghijklmnopqrstuvwxyz+
(PID.TID 0000.0001) //                  0.0: .
(PID.TID 0000.0001) // RANGE I (Lo:Hi:Step):(   1:  90:   1)
(PID.TID 0000.0001) // RANGE J (Lo:Hi:Step):(  40:   1:  -1)
(PID.TID 0000.0001) // RANGE K (Lo:Hi:Step):(   1:   1:   1)
(PID.TID 0000.0001) // =======================================================
(PID.TID 0000.0001) K =   1
(PID.TID 0000.0001)                I=10      I=20      I=30      I=40      I=50      I=60      I=70      I=80      I=90
(PID.TID 0000.0001) |--J--|123456789|123456789|123456789|123456789|123456789|123456789|123456789|123456789|123456789|
(PID.TID 0000.0001)     40 bccdd.baa----abdedd..................................................................bbbbb
(PID.TID 0000.0001)     39 ccdddddccbbbaa...ed.....................................................----........bbbbbb
(PID.TID 0000.0001)     38 fffgfedeedddc...........................................................-----......cbbbcde
(PID.TID 0000.0001)     37 ghh..................................................................bc...bbc...edeed.defg
(PID.TID 0000.0001)     36 hh.........................................ddcb....................dcccbabccdd.eefghhihhih
(PID.TID 0000.0001)     35 hh.................................aaab..dddeddd...ffggg...........ccc....ddeeeffghijjjjih
(PID.TID 0000.0001)     34 ...................................babb.deeeeeee.ffffgghh..................ccdffghijkkkj..
(PID.TID 0000.0001)     33 ....................................accdddeeeeefffffgghhiii.................bcfijkkllllkk.
(PID.TID 0000.0001)     32 ....................................bdddeffgffgghhhhhiiijjj................dccglmnmmmmlll.
(PID.TID 0000.0001)     31 ....................................fghiiiijjjjjjkkkkklllkk..............ikkjjmooooonnmm..
(PID.TID 0000.0001)     30 ...................................mmmnmmmmmmmmmmmmmnnnnnmm............moqrrrqrqqqpppooo..
(PID.TID 0000.0001)     29 .................................pqqqqqpppppppppoppoppppponm...........ssssssrrrrrqqqqpp..
(PID.TID 0000.0001)     28 ...............................prssssrrrsssrrrrrrrrrrrrrqqpoo.........uttssstssrssrrrqqq..
(PID.TID 0000.0001)     27 ..............vv..............stuttuuuuutuuuuuuuuuuttttssrrqqq...stuu.vvvuuuuutttttsss....
(PID.TID 0000.0001)     26 ..............vvv...........uuvvvvvwwwwwwwwvvvvvvvvvuuutttsssttv.uuvxxwwwwwwvvvvuuttsr....
(PID.TID 0000.0001)     25 ..............wwwx...xxx...vvvxxxxxyyxxxxxxxxxwwwwwvvvvvuuuuuvwwx...xxxxxxwwwwwwvvutsr....
(PID.TID 0000.0001)     24 ............wwwwxyy.xxyy...wxx.yyyyyyyyyyyxxxxxxxxwwwwwwwvvwwxxyywww.xxxxxxxxxxwwwvvur....
(PID.TID 0000.0001)     23 ............xxxyyyz.xyyy...xxx..yyyyzzyyyyyyyyxxxxxxxxxwwwwwxxxwwwwwx....vwxxxxwwwwwvu....
(PID.TID 0000.0001)     22 w...........xxyyyzyyyyyz...xx.yyzzzzzzzzzzzzzyyzyyyyyyxxwwxxxxwvvvwwxw......yyyyxxxxxxwxxw
(PID.TID 0000.0001)     21 xxx........xxxxyyzzzzzzz+.....zyzzzzzzz++zzzzyyyyyyyyxxwvvwwwwvvvvvvvu........yyyyyyyyyxxx
(PID.TID 0000.0001)     20 xww.......xyyyyxyyzzzzzz+......z.zzzzz+++zzzzzzyyyyyxxxxwvwxwvuuuuuuut.........yyyyxxxxwww
(PID.TID 0000.0001)     19 vvv.......yyyyxwwxyzyyzzzzz...zzz.....++++++z++z+zzzyyyyxxxxwwvvvvvvvu...........yyxxxwwww
(PID.TID 0000.0001)     18 uut.......zzyyywwxyzyyyyzzyzzzzzz...z+z++++zz+++++++zzzyyyyxxwwwvvvvvtt..........yyxxwvvwv
(PID.TID 0000.0001)     17 uus.......z.yyyyyyxyzzyyyyyyyzz.....yzzzzzzzzzzzzzzzzzzyyyyxxwwvuuvvuut.........yyyxxwttvu
(PID.TID 0000.0001)     16 utr......yy.zyyyyxxxxxxxwxxxxy.......yyyyyyyyyyyyyyyyyyyyyyyxxwvvvuuutts........xyyyxwvuuu
(PID.TID 0000.0001)     15 ttrr....xxx.xxxwxwwwwvwwvvvww.........xwxxxxxxxxxxxxxxxxxyyyxwwwvvuttssrr......wxxxxxwwvuu
(PID.TID 0000.0001)     14 ttsq....xyxwwxwvwwwvutuuuuuuu.........wwvwwwwvwvvwwwvwvvwwwwwwvvvuuutssrr.....vwwwwwwwvvvu
(PID.TID 0000.0001)     13 tttr....wwwvvvtttuuuutttssttt.........vvvuuuuuuutttttuuuuuvwwwuuuttttssrr....uvvvvvvvvvvut
(PID.TID 0000.0001)     12 sssssstttutssssrrrrrstrqqrrssqqrrq....uuttssssrrrrrrrrrrrstttssssrssrrqp.....uuuttssttssss
(PID.TID 0000.0001)     11 poprsssrqqqqqrqppooopqpoppppppppppp..sssrrr.rqpppqqqqppppqqqoppqqqqrqqpp....prsrqqqqqppppq
(PID.TID 0000.0001)     10 lllmoooonmnnmnnnnmmmmmmlmmlllmnnnnon.qqqppp.ppppppooooooooonmnnnonnooooo..nmoponnmnnnnnmll
(PID.TID 0000.0001)      9 ihhiiiihhhhhhiiihiiiiihhhiiiijjkkmnllnnnnn.mmmmnnnnmmmmnnmmlklllllklllll.mllmmllkjiijjihhi
(PID.TID 0000.0001)      8 eeeeeeeedefgggffeeffggffffggghiiiijjijklklkkkkkkkklllkkkkjjiiijkjjjjjjkj.kkjjiihggffffedde
(PID.TID 0000.0001)      7 cccccddeedddefeddddddddddefeefffffgggghiiiiiijjjihhgggghhhhhghhhhhhhiiiihiihhgfeddddddcccc
(PID.TID 0000.0001)      6 abbcccddcccccdddddccdddddddccddddddeeeeffggggghhgeddddddeeeeeeefggggghggggffeedccbbbbbbbba
(PID.TID 0000.0001)      5 bbbcccccccccccccccccccccbbccccdddddddcccddeeddeedcbbbbbbccccccdddeeeeeddddddccbbbbaaaaaaab
(PID.TID 0000.0001)      4 bbbbbbbaaabbbbbbbbbbbbaabbabbbbcbbbbbbbbbbbbbbbbbbbabbaaabbbbbbbbbbbbbbbbb..a--aaabbbaaabb
(PID.TID 0000.0001)      3 bbbbaaa-a-............................bbaaaaaaaaaaaaaaaaaaaaaaaaaaaaaaaab..aaaaaaaabbbaaaa
(PID.TID 0000.0001)      2 ..........................................baaaaaaaaaaaa-------aa..aaaa.....aaaaaaaaaaaa...
(PID.TID 0000.0001)      1 ..........................................................................................
(PID.TID 0000.0001) // =======================================================
(PID.TID 0000.0001) // END OF FIELD                                          =
(PID.TID 0000.0001) // =======================================================
(PID.TID 0000.0001) 
(PID.TID 0000.0001)  MDS_READ_FIELD: opening global file: lev_s.bin
(PID.TID 0000.0001) // =======================================================
(PID.TID 0000.0001) // Field Initial Salinity at iteration          1
(PID.TID 0000.0001) // CMIN =          2.975276947021484E+01
(PID.TID 0000.0001) // CMAX =          3.747562789916992E+01
(PID.TID 0000.0001) // CINT =          2.860317936650029E-01
(PID.TID 0000.0001) // SYMBOLS (CMIN->CMAX): -abcdefghijklmnopqrstuvwxyz+
(PID.TID 0000.0001) //                  0.0: .
(PID.TID 0000.0001) // RANGE I (Lo:Hi:Step):(   1:  90:   1)
(PID.TID 0000.0001) // RANGE J (Lo:Hi:Step):(  40:   1:  -1)
(PID.TID 0000.0001) // RANGE K (Lo:Hi:Step):(   1:   1:   1)
(PID.TID 0000.0001) // =======================================================
(PID.TID 0000.0001) K =   1
(PID.TID 0000.0001)                I=10      I=20      I=30      I=40      I=50      I=60      I=70      I=80      I=90
(PID.TID 0000.0001) |--J--|123456789|123456789|123456789|123456789|123456789|123456789|123456789|123456789|123456789|
(PID.TID 0000.0001)     40 qrrrr.oonnooopqtutt..................................................................mnnop
(PID.TID 0000.0001)     39 rssrrrrrrrqqpn...ut.....................................................mmmm........opqqqr
(PID.TID 0000.0001)     38 ssrrqqqqrrqpo...........................................................lkkll......onoqrrs
(PID.TID 0000.0001)     37 ssr..................................................................hg...lln...qppqr.rrrs
(PID.TID 0000.0001)     36 rr.........................................lkji....................feeegikmoop.pqrssssssss
(PID.TID 0000.0001)     35 rr.................................kkkk..lllllki...jijjj...........aa-....opqrrrrrrrssttss
(PID.TID 0000.0001)     34 ...................................jlll.kklllllk.ijkkkjih..................hlpqrqrrsstts..
(PID.TID 0000.0001)     33 ....................................iklkkkkkkkkkjkkjjjjjjii.................jmprrsstttttt.
(PID.TID 0000.0001)     32 ....................................iklllkllllllllkkkkkkkji................gilpstuuttuuut.
(PID.TID 0000.0001)     31 ....................................lmnonnnnoooonnmmmmllkjj..............loopqtvvvuuuuuu..
(PID.TID 0000.0001)     30 ...................................pppppppqqqqpppoooonnmlkk............ptvxwwvvwvvvvvvvu..
(PID.TID 0000.0001)     29 .................................pqqrqqqqqqrrrqqppqqqpponmll...........vxxxxxxwwwwwxwwxw..
(PID.TID 0000.0001)     28 ...............................prrrrrqqrrrrrsrrsrssssssrqonmm.........wxxxxxxxyyyyyyyyxx..
(PID.TID 0000.0001)     27 ..............xx..............prrrrrrrrrssssssstttssssssrqpoop...uwww.wwxxxyyy++zzzzyy....
(PID.TID 0000.0001)     26 ..............wxx...........ppqrrrrrrsssrrstsstttssrrrrrrrqppqqp.wwwvvwwwwwxyy+++zzyxw....
(PID.TID 0000.0001)     25 ..............wxxv...kkk...ooopqrrrrrssrrrrrrrssssqqpppppppppppoo...vvutuuvvwxyyyxxvvu....
(PID.TID 0000.0001)     24 ............uvvwwur.lmlk...nmm.pqqqqrrrrrqqqqrrqqrpppppooooonmmmnooo.uuuuuuttuvvvuvuut....
(PID.TID 0000.0001)     23 ............vvuvtqp.lmml...mln..ppppqpqppppppqpppppppppqppponnnnnoopm....xvuuuvvvvuuut....
(PID.TID 0000.0001)     22 r...........vuttsqqpnppn...mm.oppqqrrqqqqqqppppqqrrrqqqrrppppoopooomjj......uuvvvvvuttssrr
(PID.TID 0000.0001)     21 qmm........ttsssssssrsqon.....opqqqqqqqrrrrqqqssssssrrrrrrrrpqqqppomll........tvvvvuttssrr
(PID.TID 0000.0001)     20 sqq.......sttssrrsrrrrpol......p.qrqpqrrrrrrrstttttsssrrsssrqrrrrqqqpo.........wwwvvvuuutt
(PID.TID 0000.0001)     19 tsr.......ssssrrrrpppppnmmm...oqq.....qrqqsrrstttuuuttssttssrrssrrrrqq...........wwwvuvvvv
(PID.TID 0000.0001)     18 wut.......ssrrrrrqppppppppoooorrr...poqqqprrrttttuuutuuuuuutttttttutsss..........yyxwwxwxx
(PID.TID 0000.0001)     17 wwu.......s.rrrrrrqppppqqqqqqqr.....rrsrqrsssuusrtuuuvvvwwvvvuuuuutttss.........xyzyyyyxxx
(PID.TID 0000.0001)     16 vvt......ss.qrrssrqrqpqrrrrrrr.......ssrrstsstusrsuuuvwwwwxxwwvvvuttttsr........yz+zzzxwww
(PID.TID 0000.0001)     15 utss....stt.rrssstttsrrsrstsr.........ssstttssttsuuttuvvvvwxwwwwwuttsssrr......xyyyyxyyxwv
(PID.TID 0000.0001)     14 utts....sstrrssstuuuuuuuuuutt.........stttuutttttttuttttttuvvvvvvutsrqrrr.....vxxwwwwxwvwv
(PID.TID 0000.0001)     13 uuut....ttttttttuuuuuvtuuuuuu.........ttttuutttttttuutsssstttttstsqrqqppp....uwwwvuvvvutvv
(PID.TID 0000.0001)     12 ttttttttttttttttttttttssuuuuutuuut....tttttttttttsssssrrrrrrrqqqqqppppoo.....rvvuuttttttuu
(PID.TID 0000.0001)     11 rqsttttttttuuttttsssssrrstttttttsss..ttttts.tsssrrrrqqqqqppppoonnooooooo....oruttttsssrqrs
(PID.TID 0000.0001)     10 pppqrssrqqrqpqrssrrqqqqqqrrrrrrrrrrs.sssssr.rssrrqqpppppppooooonnnoooonn..moqrrrqqqqqqqqqq
(PID.TID 0000.0001)      9 oonooooooooonnnooooooooooppppppqqqqqrrrqrq.pppqqqqqppppppppppoooooooooll.lmoqqqqppooooopoo
(PID.TID 0000.0001)      8 nnnoonooooooonnnnnnnoooonoonoooppopqqqqqqqppopppqqqpppppppppppppppooopon.lnopppoooonnnnooo
(PID.TID 0000.0001)      7 ooooooooooopponnnooooooonnnnnonnooooooooopppppppoooooooooopppppppppoopqnnmnoooonnnonnnnnno
(PID.TID 0000.0001)      6 oooonnoonnnnooooooooooooonnnnnnnnnnnnnnnnoooopppooooooooooooooppppppppppoooooooonnnnnmnnnn
(PID.TID 0000.0001)      5 oooonnnnnnnnnnnnnnnnnoooooonnnnnnonnnnnnnnnoooooooooooonnnnnnooooooopoooonoooonnnnnnnooooo
(PID.TID 0000.0001)      4 oooonnnooonnnnnnnnnnnnnnoooooonnnooooonnnooooooooppponnnnmmmnnnnmnnoonnnnn..nnnooooooooooo
(PID.TID 0000.0001)      3 ooonnnnnnn............................nnoooooonnooooonnnnnnnoonnnnnnnnmmm..ooopooooooooooo
(PID.TID 0000.0001)      2 ..........................................pppooooonnnnnnoooppppo..nnnn.....qqqpppoooooo...
(PID.TID 0000.0001)      1 ..........................................................................................
(PID.TID 0000.0001) // =======================================================
(PID.TID 0000.0001) // END OF FIELD                                          =
(PID.TID 0000.0001) // =======================================================
(PID.TID 0000.0001) 
(PID.TID 0000.0001) Start initial hydrostatic pressure computation
(PID.TID 0000.0001) Pressure is predetermined for buoyancyRelation OCEANIC
(PID.TID 0000.0001) 
(PID.TID 0000.0001)  MDS_READ_FIELD: opening global file: trenberth_taux.bin
(PID.TID 0000.0001)  MDS_READ_FIELD: opening global file: trenberth_tauy.bin
(PID.TID 0000.0001)  MDS_READ_FIELD: opening global file: ncep_qnet.bin
(PID.TID 0000.0001)  MDS_READ_FIELD: opening global file: lev_sst.bin
(PID.TID 0000.0001)  MDS_READ_FIELD: opening global file: lev_sss.bin
(PID.TID 0000.0001) // =======================================================
(PID.TID 0000.0001) // Model current state
(PID.TID 0000.0001) // =======================================================
(PID.TID 0000.0001) 
S/R EXTERNAL_FIELDS_LOAD: Reading new data:   12    1         0  0.000000000000E+00
(PID.TID 0000.0001)  MDS_READ_FIELD: opening global file: trenberth_taux.bin
(PID.TID 0000.0001)  MDS_READ_FIELD: opening global file: trenberth_taux.bin
(PID.TID 0000.0001)  MDS_READ_FIELD: opening global file: trenberth_tauy.bin
(PID.TID 0000.0001)  MDS_READ_FIELD: opening global file: trenberth_tauy.bin
(PID.TID 0000.0001)  MDS_READ_FIELD: opening global file: ncep_qnet.bin
(PID.TID 0000.0001)  MDS_READ_FIELD: opening global file: ncep_qnet.bin
(PID.TID 0000.0001)  MDS_READ_FIELD: opening global file: lev_sst.bin
(PID.TID 0000.0001)  MDS_READ_FIELD: opening global file: lev_sst.bin
(PID.TID 0000.0001)  MDS_READ_FIELD: opening global file: lev_sss.bin
(PID.TID 0000.0001)  MDS_READ_FIELD: opening global file: lev_sss.bin
time,SST,SSS,fu,fv,Q,E-P,i0,i1,a,b =   0.0000E+00  5.3151E-02  3.4364E+01 -4.0500E-02 -6.3753E-02  2.6510E+02  0.0000E+00    12     1  5.0000E-01  5.0000E-01
time,fu0,fu1,fu =   0.0000E+00 -4.5368E-02 -3.5633E-02 -4.0500E-02  5.000000000000000E-01  5.000000000000000E-01
(PID.TID 0000.0001)  MDS_READ_FIELD: opening file: xx_hfluxm.0000000000.001.001.data
 cg2d: Sum(rhs),rhsMax =   1.47867829092263E-14  2.54952604282385E+00
time,SST,SSS,fu,fv,Q,E-P,i0,i1,a,b =   8.6400E+04  1.1350E-01  3.4387E+01 -4.0176E-02 -6.3320E-02  2.6514E+02  0.0000E+00    12     1  5.3333E-01  4.6667E-01
time,fu0,fu1,fu =   8.6400E+04 -4.5368E-02 -3.5633E-02 -4.0176E-02  5.333333333333333E-01  4.666666666666667E-01
 cg2d: Sum(rhs),rhsMax =   1.11299858218672E-14  2.62443215722193E+00
time,SST,SSS,fu,fv,Q,E-P,i0,i1,a,b =   1.7280E+05  1.7385E-01  3.4410E+01 -3.9851E-02 -6.2886E-02  2.6519E+02  0.0000E+00    12     1  5.6667E-01  4.3333E-01
time,fu0,fu1,fu =   1.7280E+05 -4.5368E-02 -3.5633E-02 -3.9851E-02  5.666666666666667E-01  4.333333333333333E-01
 cg2d: Sum(rhs),rhsMax =  -4.06480404890885E-14  2.39923446840278E+00
time,SST,SSS,fu,fv,Q,E-P,i0,i1,a,b =   2.5920E+05  2.3421E-01  3.4434E+01 -3.9527E-02 -6.2453E-02  2.6523E+02  0.0000E+00    12     1  6.0000E-01  4.0000E-01
time,fu0,fu1,fu =   2.5920E+05 -4.5368E-02 -3.5633E-02 -3.9527E-02  6.000000000000000E-01  4.000000000000000E-01
 cg2d: Sum(rhs),rhsMax =  -1.38500322321988E-14  2.21574359151329E+00
time,SST,SSS,fu,fv,Q,E-P,i0,i1,a,b =   3.4560E+05  2.9456E-01  3.4457E+01 -3.9202E-02 -6.2020E-02  2.6528E+02  0.0000E+00    12     1  6.3333E-01  3.6667E-01
time,fu0,fu1,fu =   3.4560E+05 -4.5368E-02 -3.5633E-02 -3.9202E-02  6.333333333333333E-01  3.666666666666667E-01
 cg2d: Sum(rhs),rhsMax =   3.63459262686661E-14  2.00995911954326E+00
time,SST,SSS,fu,fv,Q,E-P,i0,i1,a,b =   4.3200E+05  3.5491E-01  3.4481E+01 -3.8878E-02 -6.1587E-02  2.6532E+02  0.0000E+00    12     1  6.6667E-01  3.3333E-01
time,fu0,fu1,fu =   4.3200E+05 -4.5368E-02 -3.5633E-02 -3.8878E-02  6.666666666666666E-01  3.333333333333334E-01
 cg2d: Sum(rhs),rhsMax =  -4.51999548900517E-14  1.78612610533026E+00
time,SST,SSS,fu,fv,Q,E-P,i0,i1,a,b =   5.1840E+05  4.1526E-01  3.4504E+01 -3.8553E-02 -6.1154E-02  2.6537E+02  0.0000E+00    12     1  7.0000E-01  3.0000E-01
time,fu0,fu1,fu =   5.1840E+05 -4.5368E-02 -3.5633E-02 -3.8553E-02  7.000000000000000E-01  3.000000000000000E-01
 cg2d: Sum(rhs),rhsMax =  -2.44804176929847E-14  1.55419822260071E+00
time,SST,SSS,fu,fv,Q,E-P,i0,i1,a,b =   6.0480E+05  4.7561E-01  3.4527E+01 -3.8229E-02 -6.0721E-02  2.6541E+02  0.0000E+00    12     1  7.3333E-01  2.6667E-01
time,fu0,fu1,fu =   6.0480E+05 -4.5368E-02 -3.5633E-02 -3.8229E-02  7.333333333333333E-01  2.666666666666667E-01
 cg2d: Sum(rhs),rhsMax =  -5.29160049111965E-14  1.32823755952736E+00
time,SST,SSS,fu,fv,Q,E-P,i0,i1,a,b =   6.9120E+05  5.3596E-01  3.4551E+01 -3.7904E-02 -6.0288E-02  2.6546E+02  0.0000E+00    12     1  7.6667E-01  2.3333E-01
time,fu0,fu1,fu =   6.9120E+05 -4.5368E-02 -3.5633E-02 -3.7904E-02  7.666666666666667E-01  2.333333333333333E-01
 cg2d: Sum(rhs),rhsMax =  -2.97400992721464E-14  1.15613808765430E+00
time,SST,SSS,fu,fv,Q,E-P,i0,i1,a,b =   7.7760E+05  5.9632E-01  3.4574E+01 -3.7580E-02 -5.9855E-02  2.6550E+02  0.0000E+00    12     1  8.0000E-01  2.0000E-01
time,fu0,fu1,fu =   7.7760E+05 -4.5368E-02 -3.5633E-02 -3.7580E-02  8.000000000000000E-01  2.000000000000000E-01
 cg2d: Sum(rhs),rhsMax =   4.08700850940136E-14  1.08384893708049E+00
(PID.TID 0000.0001) %CHECKPOINT        10 ckptA
(PID.TID 0000.0001)  MDS_READ_FIELD: opening global file: bathymetry.bin
(PID.TID 0000.0001) // =======================================================
(PID.TID 0000.0001) // Field Model R_low (ini_masks_etc) at iteration          1
(PID.TID 0000.0001) // CMIN =         -5.200000000000000E+03
(PID.TID 0000.0001) // CMAX =         -1.200000000000000E+02
(PID.TID 0000.0001) // CINT =          1.881481481481482E+02
(PID.TID 0000.0001) // SYMBOLS (CMIN->CMAX): -abcdefghijklmnopqrstuvwxyz+
(PID.TID 0000.0001) //                  0.0: .
(PID.TID 0000.0001) // RANGE I (Lo:Hi:Step):(  -1:  92:   1)
(PID.TID 0000.0001) // RANGE J (Lo:Hi:Step):(  42:  -1:  -1)
(PID.TID 0000.0001) // RANGE K (Lo:Hi:Step):(   1:   1:   1)
(PID.TID 0000.0001) // =======================================================
(PID.TID 0000.0001) K =   1
(PID.TID 0000.0001) //                I=8       I=18      I=28      I=38      I=48      I=58      I=68      I=78      I=88
(PID.TID 0000.0001) // |--J--|101234567|901234567|901234567|901234567|901234567|901234567|901234567|901234567|901234567|9012
(PID.TID 0000.0001) //     42 ............................................zyxxmgfeeefefgimnpwwwy..+zyy.....yyyyoiiihhz+.....
(PID.TID 0000.0001) //     41 ..............................................................................................
(PID.TID 0000.0001) //     40 qlloqz+.++++zzz++++++..................................................................+++qllo
(PID.TID 0000.0001) //     39 slloorzzzzzzzzz+...++.....................................................yxxz........+zvusllo
(PID.TID 0000.0001) //     38 mqpporzzzzzz+++...........................................................zxxy+......zyyvsmqpp
(PID.TID 0000.0001) //     37 mmmuz..................................................................++...zy+...yttyy.+smmmu
(PID.TID 0000.0001) //     36 utt+.........................................mm++....................+++++++znmm.yoowssvuyutt+
(PID.TID 0000.0001) //     35 ++++.................................+zzz..rrmmkk+...+gghn...........+++....+nmiijlsoopuww++++
(PID.TID 0000.0001) //     34 .....................................+vvy.ggqyxv+y.ccdffhim..................+nihhikkihhm+....
(PID.TID 0000.0001) //     33 +.....................................uuz---h------aaabdefin+.................zqvddflifffw+...
(PID.TID 0000.0001) //     32 +.....................................+t----h---------acdfgnn................+++gdffkofffm+...
(PID.TID 0000.0001) //     31 ......................................-----ad--------abddegil..............qbaafccdhqqgddm....
(PID.TID 0000.0001) //     30 .....................................f----b--b------------abd............zfbb--fbcdosjfddi....
(PID.TID 0000.0001) //     29 ...................................tu----e---fjg----------abdf...........eaac--abfmijaadgi....
(PID.TID 0000.0001) //     28 .................................+xfl-------------------bdedefi.........qbaa---aemfbbaaejz....
(PID.TID 0000.0001) //     27 ................xx..............+wfgfpf--------eallc---bbbccefgi...+++x.qb-----akfa---ah......
(PID.TID 0000.0001) //     26 ................xnn...........+vd---dna------a--aicfna---aabdfghku.++xssuy-----bgca---ci......
(PID.TID 0000.0001) //     25 ................iiik...oo+...+ivd---doaa-bc--ilglf--aa---aabcghhkll...ssum+xaaacjbaabdjk......
(PID.TID 0000.0001) //     24 ..............xnheeft.kkk+...uii.aagdm----aa-----a-------bbbcdefjljjju.zummwwbbchba--abi......
(PID.TID 0000.0001) //     23 ..............xgheefp.iikw...uuw..fihi----fed-----eaaa--bbbbcdfflkjiiiq....zykccefa--abd......
(PID.TID 0000.0001) //     22 uss...........bbelffslffkk...zz.wqkeeqoheccdfa-----egabaabcdddegghliiiqq......xeeehheehccquss.
(PID.TID 0000.0001) //     21 bbeir........nbbcdjhqdddiiz.....wqfeelgghmedea-----bibbcddddddefghklnqoo........ieeflhgcccbbei
(PID.TID 0000.0001) //     20 bbder.......ldcccdgkccccidd......z.vkkktqqhegg----aaacddddddddefghkiiijl.........nhfa--gfcbbde
(PID.TID 0000.0001) //     19 cdaaf.......kddosggpaaaibbccx...+z+.....r+nlec---agaaabcddccddefikfgffff...........d---cjhcdaa
(PID.TID 0000.0001) //     18 d---d.......kglggvliaaaibbcaaeaiv++...qqzolhecccfdgkaabcdfccdeeikgfgffdd+..........d---djhd---
(PID.TID 0000.0001) //     17 c---c.......l.feewlfaaaoaa----aiv.....qqnllslmlofcdbaacceffffhhligfigeddj.........hd---ckhc---
(PID.TID 0000.0001) //     16 ba--c......tn.ddgnlfdaaqa-----lv.......vnllvllnwv--accivomfffhilhgfffeddjf........re--aeigba--
(PID.TID 0000.0001) //     15 b--dpz....+ll.ccdfhmdddlc----av.........otsxoomv---abccddfihgijkhgfffeejfff......+fd---ckfb--d
(PID.TID 0000.0001) //     14 c--mcl....weeqbaafilkfend--eagy.........hhstofft----aacdheefijkmjhhjijiffff.....zlfdaaadlfc--m
(PID.TID 0000.0001) //     13 cclbbg....nccobaaiddgkffqrqeaal.........eeutqfft------aaceeffhijlkjhhigfffq....+jgfodccflhcclb
(PID.TID 0000.0001) //     12 hgaaacw+iiicclemhdddfliigfdcaabfaaaz....ccsurqpc--------abcifffikiiihhggff.....kbbbdfffglhhgaa
(PID.TID 0000.0001) //     11 gcaaacbbifccennhbbdefnihgfdccaaaa----..dcccnt.ncab-------aabcdfilhggjiggff....l---abcefjlkgcaa
(PID.TID 0000.0001) //     10 fcaaccbdaacfrllfbbdegkmmljhfdddba----d.dcccfx.nyrebaba----abcdgilhfeegijgi..+w--aa-abcfilkfcaa
(PID.TID 0000.0001) //      9 ffcdcccaaaoqsolfdeehikihhlllgfedcccccdmdcccf.vyfaaaaaaaa--abdehmjhfeeefglv.++w-----abcdfklffcd
(PID.TID 0000.0001) //      8 iffjklcaafddffeeccvznkfffhhhlkjifgjkkfeeddfsyvcaaaaaaccdcccdfgjligedbbceg+.++xffn--cfddefliffj
(PID.TID 0000.0001) //      7 mqnnbbkkf--bmbaabbgtykfddeffeeddccdfhlffeelfbaaaaaacddeghgjgjlligeddaaabedfiiiiiisvkfkecchmqnn
(PID.TID 0000.0001) //      6 ca-------------aabcelttdddedddddccccdfkkiiffbaaaabcdgimmkmefecaaabbbaaabbdfiiiiispmmregifcca--
(PID.TID 0000.0001) //      5 -------a-------aaccehhhiddeddddddcccdfiikomodddefffmlmigedccaaaaaaaababbbdfiijsqgeccccbaa-----
(PID.TID 0000.0001) //      4 -ahebaabbbbbeihffgijiiiijpywnnpokkomkiiijmmmolkommmgffeeedccaaaaaabbcccefhmz..yjgeccccbaa--ahe
(PID.TID 0000.0001) //      3 ffhhrpjiiwyy............................yxotmjjjjgfeeeeeeddeffffheddeghjkyy..yqjgeddccdbbgffhh
(PID.TID 0000.0001) //      2 ............................................zyxxmgfeeefefgimnpwwwy..+zyy.....yyyyoiiihhz+.....
(PID.TID 0000.0001) //      1 ..............................................................................................
(PID.TID 0000.0001) //      0 qlloqz+.++++zzz++++++..................................................................+++qllo
(PID.TID 0000.0001) //     -1 slloorzzzzzzzzz+...++.....................................................yxxz........+zvusllo
(PID.TID 0000.0001) // =======================================================
(PID.TID 0000.0001) // END OF FIELD                                          =
(PID.TID 0000.0001) // =======================================================
(PID.TID 0000.0001) 
(PID.TID 0000.0001) // =======================================================
(PID.TID 0000.0001) // Field Model Ro_surf (ini_masks_etc) at iteration          1
(PID.TID 0000.0001) // CMIN =          1.000000000000000E+32
(PID.TID 0000.0001) // CMAX =         -1.000000000000000E+32
(PID.TID 0000.0001) // CINT =          0.000000000000000E+00
(PID.TID 0000.0001) // SYMBOLS (CMIN->CMAX): -abcdefghijklmnopqrstuvwxyz+
(PID.TID 0000.0001) //                  0.0: .
(PID.TID 0000.0001) // RANGE I (Lo:Hi:Step):(  -1:  92:   1)
(PID.TID 0000.0001) // RANGE J (Lo:Hi:Step):(  42:  -1:  -1)
(PID.TID 0000.0001) // RANGE K (Lo:Hi:Step):(   1:   1:   1)
(PID.TID 0000.0001) // =======================================================
(PID.TID 0000.0001) // =======================================================
(PID.TID 0000.0001) // END OF FIELD                                          =
(PID.TID 0000.0001) // =======================================================
(PID.TID 0000.0001) 
(PID.TID 0000.0001) // =======================================================
(PID.TID 0000.0001) // Field hFacC at iteration          1
(PID.TID 0000.0001) // CMIN =          1.000000000000000E+00
(PID.TID 0000.0001) // CMAX =          1.000000000000000E+00
(PID.TID 0000.0001) // CINT =          0.000000000000000E+00
(PID.TID 0000.0001) // SYMBOLS (CMIN->CMAX): -abcdefghijklmnopqrstuvwxyz+
(PID.TID 0000.0001) //                  0.0: .
(PID.TID 0000.0001) // RANGE I (Lo:Hi:Step):(  -1:  92:   1)
(PID.TID 0000.0001) // RANGE J (Lo:Hi:Step):(  42:  -1:  -1)
(PID.TID 0000.0001) // RANGE K (Lo:Hi:Step):(   1:   1:   1)
(PID.TID 0000.0001) // =======================================================
(PID.TID 0000.0001) // =======================================================
(PID.TID 0000.0001) // END OF FIELD                                          =
(PID.TID 0000.0001) // =======================================================
(PID.TID 0000.0001) 
(PID.TID 0000.0001) // =======================================================
(PID.TID 0000.0001) // Field hFacW at iteration          1
(PID.TID 0000.0001) // CMIN =          1.000000000000000E+00
(PID.TID 0000.0001) // CMAX =          1.000000000000000E+00
(PID.TID 0000.0001) // CINT =          0.000000000000000E+00
(PID.TID 0000.0001) // SYMBOLS (CMIN->CMAX): -abcdefghijklmnopqrstuvwxyz+
(PID.TID 0000.0001) //                  0.0: .
(PID.TID 0000.0001) // RANGE I (Lo:Hi:Step):(  -1:  92:   1)
(PID.TID 0000.0001) // RANGE J (Lo:Hi:Step):(  42:  -1:  -1)
(PID.TID 0000.0001) // RANGE K (Lo:Hi:Step):(   1:   1:   1)
(PID.TID 0000.0001) // =======================================================
(PID.TID 0000.0001) // =======================================================
(PID.TID 0000.0001) // END OF FIELD                                          =
(PID.TID 0000.0001) // =======================================================
(PID.TID 0000.0001) 
(PID.TID 0000.0001) // =======================================================
(PID.TID 0000.0001) // Field hFacS at iteration          1
(PID.TID 0000.0001) // CMIN =          1.000000000000000E+00
(PID.TID 0000.0001) // CMAX =          1.000000000000000E+00
(PID.TID 0000.0001) // CINT =          0.000000000000000E+00
(PID.TID 0000.0001) // SYMBOLS (CMIN->CMAX): -abcdefghijklmnopqrstuvwxyz+
(PID.TID 0000.0001) //                  0.0: .
(PID.TID 0000.0001) // RANGE I (Lo:Hi:Step):(  -1:  92:   1)
(PID.TID 0000.0001) // RANGE J (Lo:Hi:Step):(  42:  -1:  -1)
(PID.TID 0000.0001) // RANGE K (Lo:Hi:Step):(   1:   1:   1)
(PID.TID 0000.0001) // =======================================================
(PID.TID 0000.0001) // =======================================================
(PID.TID 0000.0001) // END OF FIELD                                          =
(PID.TID 0000.0001) // =======================================================
(PID.TID 0000.0001) 
(PID.TID 0000.0001) %MON surfExpanfCori_max           =   1.4265546244797E-04
(PID.TID 0000.0001) %MON surfExpanfCori_min           =  -1.4265546244797E-04
(PID.TID 0000.0001) %MON surfExpanfCori_mean          =  -1.2347858075529E-21
(PID.TID 0000.0001) %MON surfExpanfCori_sd            =   9.6599226301547E-05
(PID.TID 0000.0001) %MON surfExpanfCoriG_max          =   1.4151032568025E-04
(PID.TID 0000.0001) %MON surfExpanfCoriG_min          =  -1.4362679550910E-04
(PID.TID 0000.0001) %MON surfExpanfCoriG_mean         =  -3.5906698877274E-06
(PID.TID 0000.0001) %MON surfExpanfCoriG_sd           =   9.6548915696244E-05
(PID.TID 0000.0001) %MON surfExpanfCoriCos_max        =   1.4575362704741E-04
(PID.TID 0000.0001) %MON surfExpanfCoriCos_min        =   3.0322354601388E-05
(PID.TID 0000.0001) %MON surfExpanfCoriCos_mean       =   1.0288600773632E-04
(PID.TID 0000.0001) %MON surfExpanfCoriCos_sd         =   3.6784304327266E-05
(PID.TID 0000.0001) INI_CG2D: CG2D normalisation factor =  6.5682677425711703E-05
(PID.TID 0000.0001) 
(PID.TID 0000.0001)  MDS_READ_FIELD: opening global file: lev_t.bin
(PID.TID 0000.0001) // =======================================================
(PID.TID 0000.0001) // Field Initial Temperature at iteration          1
(PID.TID 0000.0001) // CMIN =         -1.900000000000000E+00
(PID.TID 0000.0001) // CMAX =          2.973338890075684E+01
(PID.TID 0000.0001) // CINT =          1.171606996324327E+00
(PID.TID 0000.0001) // SYMBOLS (CMIN->CMAX): -abcdefghijklmnopqrstuvwxyz+
(PID.TID 0000.0001) //                  0.0: .
(PID.TID 0000.0001) // RANGE I (Lo:Hi:Step):(   1:  90:   1)
(PID.TID 0000.0001) // RANGE J (Lo:Hi:Step):(  40:   1:  -1)
(PID.TID 0000.0001) // RANGE K (Lo:Hi:Step):(   1:   1:   1)
(PID.TID 0000.0001) // =======================================================
(PID.TID 0000.0001) K =   1
(PID.TID 0000.0001)                I=10      I=20      I=30      I=40      I=50      I=60      I=70      I=80      I=90
(PID.TID 0000.0001) |--J--|123456789|123456789|123456789|123456789|123456789|123456789|123456789|123456789|123456789|
(PID.TID 0000.0001)     40 bccdd.baa----abdedd..................................................................bbbbb
(PID.TID 0000.0001)     39 ccdddddccbbbaa...ed.....................................................----........bbbbbb
(PID.TID 0000.0001)     38 fffgfedeedddc...........................................................-----......cbbbcde
(PID.TID 0000.0001)     37 ghh..................................................................bc...bbc...edeed.defg
(PID.TID 0000.0001)     36 hh.........................................ddcb....................dcccbabccdd.eefghhihhih
(PID.TID 0000.0001)     35 hh.................................aaab..dddeddd...ffggg...........ccc....ddeeeffghijjjjih
(PID.TID 0000.0001)     34 ...................................babb.deeeeeee.ffffgghh..................ccdffghijkkkj..
(PID.TID 0000.0001)     33 ....................................accdddeeeeefffffgghhiii.................bcfijkkllllkk.
(PID.TID 0000.0001)     32 ....................................bdddeffgffgghhhhhiiijjj................dccglmnmmmmlll.
(PID.TID 0000.0001)     31 ....................................fghiiiijjjjjjkkkkklllkk..............ikkjjmooooonnmm..
(PID.TID 0000.0001)     30 ...................................mmmnmmmmmmmmmmmmmnnnnnmm............moqrrrqrqqqpppooo..
(PID.TID 0000.0001)     29 .................................pqqqqqpppppppppoppoppppponm...........ssssssrrrrrqqqqpp..
(PID.TID 0000.0001)     28 ...............................prssssrrrsssrrrrrrrrrrrrrqqpoo.........uttssstssrssrrrqqq..
(PID.TID 0000.0001)     27 ..............vv..............stuttuuuuutuuuuuuuuuuttttssrrqqq...stuu.vvvuuuuutttttsss....
(PID.TID 0000.0001)     26 ..............vvv...........uuvvvvvwwwwwwwwvvvvvvvvvuuutttsssttv.uuvxxwwwwwwvvvvuuttsr....
(PID.TID 0000.0001)     25 ..............wwwx...xxx...vvvxxxxxyyxxxxxxxxxwwwwwvvvvvuuuuuvwwx...xxxxxxwwwwwwvvutsr....
(PID.TID 0000.0001)     24 ............wwwwxyy.xxyy...wxx.yyyyyyyyyyyxxxxxxxxwwwwwwwvvwwxxyywww.xxxxxxxxxxwwwvvur....
(PID.TID 0000.0001)     23 ............xxxyyyz.xyyy...xxx..yyyyzzyyyyyyyyxxxxxxxxxwwwwwxxxwwwwwx....vwxxxxwwwwwvu....
(PID.TID 0000.0001)     22 w...........xxyyyzyyyyyz...xx.yyzzzzzzzzzzzzzyyzyyyyyyxxwwxxxxwvvvwwxw......yyyyxxxxxxwxxw
(PID.TID 0000.0001)     21 xxx........xxxxyyzzzzzzz+.....zyzzzzzzz++zzzzyyyyyyyyxxwvvwwwwvvvvvvvu........yyyyyyyyyxxx
(PID.TID 0000.0001)     20 xww.......xyyyyxyyzzzzzz+......z.zzzzz+++zzzzzzyyyyyxxxxwvwxwvuuuuuuut.........yyyyxxxxwww
(PID.TID 0000.0001)     19 vvv.......yyyyxwwxyzyyzzzzz...zzz.....++++++z++z+zzzyyyyxxxxwwvvvvvvvu...........yyxxxwwww
(PID.TID 0000.0001)     18 uut.......zzyyywwxyzyyyyzzyzzzzzz...z+z++++zz+++++++zzzyyyyxxwwwvvvvvtt..........yyxxwvvwv
(PID.TID 0000.0001)     17 uus.......z.yyyyyyxyzzyyyyyyyzz.....yzzzzzzzzzzzzzzzzzzyyyyxxwwvuuvvuut.........yyyxxwttvu
(PID.TID 0000.0001)     16 utr......yy.zyyyyxxxxxxxwxxxxy.......yyyyyyyyyyyyyyyyyyyyyyyxxwvvvuuutts........xyyyxwvuuu
(PID.TID 0000.0001)     15 ttrr....xxx.xxxwxwwwwvwwvvvww.........xwxxxxxxxxxxxxxxxxxyyyxwwwvvuttssrr......wxxxxxwwvuu
(PID.TID 0000.0001)     14 ttsq....xyxwwxwvwwwvutuuuuuuu.........wwvwwwwvwvvwwwvwvvwwwwwwvvvuuutssrr.....vwwwwwwwvvvu
(PID.TID 0000.0001)     13 tttr....wwwvvvtttuuuutttssttt.........vvvuuuuuuutttttuuuuuvwwwuuuttttssrr....uvvvvvvvvvvut
(PID.TID 0000.0001)     12 sssssstttutssssrrrrrstrqqrrssqqrrq....uuttssssrrrrrrrrrrrstttssssrssrrqp.....uuuttssttssss
(PID.TID 0000.0001)     11 poprsssrqqqqqrqppooopqpoppppppppppp..sssrrr.rqpppqqqqppppqqqoppqqqqrqqpp....prsrqqqqqppppq
(PID.TID 0000.0001)     10 lllmoooonmnnmnnnnmmmmmmlmmlllmnnnnon.qqqppp.ppppppooooooooonmnnnonnooooo..nmoponnmnnnnnmll
(PID.TID 0000.0001)      9 ihhiiiihhhhhhiiihiiiiihhhiiiijjkkmnllnnnnn.mmmmnnnnmmmmnnmmlklllllklllll.mllmmllkjiijjihhi
(PID.TID 0000.0001)      8 eeeeeeeedefgggffeeffggffffggghiiiijjijklklkkkkkkkklllkkkkjjiiijkjjjjjjkj.kkjjiihggffffedde
(PID.TID 0000.0001)      7 cccccddeedddefeddddddddddefeefffffgggghiiiiiijjjihhgggghhhhhghhhhhhhiiiihiihhgfeddddddcccc
(PID.TID 0000.0001)      6 abbcccddcccccdddddccdddddddccddddddeeeeffggggghhgeddddddeeeeeeefggggghggggffeedccbbbbbbbba
(PID.TID 0000.0001)      5 bbbcccccccccccccccccccccbbccccdddddddcccddeeddeedcbbbbbbccccccdddeeeeeddddddccbbbbaaaaaaab
(PID.TID 0000.0001)      4 bbbbbbbaaabbbbbbbbbbbbaabbabbbbcbbbbbbbbbbbbbbbbbbbabbaaabbbbbbbbbbbbbbbbb..a--aaabbbaaabb
(PID.TID 0000.0001)      3 bbbbaaa-a-............................bbaaaaaaaaaaaaaaaaaaaaaaaaaaaaaaaab..aaaaaaaabbbaaaa
(PID.TID 0000.0001)      2 ..........................................baaaaaaaaaaaa-------aa..aaaa.....aaaaaaaaaaaa...
(PID.TID 0000.0001)      1 ..........................................................................................
(PID.TID 0000.0001) // =======================================================
(PID.TID 0000.0001) // END OF FIELD                                          =
(PID.TID 0000.0001) // =======================================================
(PID.TID 0000.0001) 
(PID.TID 0000.0001)  MDS_READ_FIELD: opening global file: lev_s.bin
(PID.TID 0000.0001) // =======================================================
(PID.TID 0000.0001) // Field Initial Salinity at iteration          1
(PID.TID 0000.0001) // CMIN =          2.975276947021484E+01
(PID.TID 0000.0001) // CMAX =          3.747562789916992E+01
(PID.TID 0000.0001) // CINT =          2.860317936650029E-01
(PID.TID 0000.0001) // SYMBOLS (CMIN->CMAX): -abcdefghijklmnopqrstuvwxyz+
(PID.TID 0000.0001) //                  0.0: .
(PID.TID 0000.0001) // RANGE I (Lo:Hi:Step):(   1:  90:   1)
(PID.TID 0000.0001) // RANGE J (Lo:Hi:Step):(  40:   1:  -1)
(PID.TID 0000.0001) // RANGE K (Lo:Hi:Step):(   1:   1:   1)
(PID.TID 0000.0001) // =======================================================
(PID.TID 0000.0001) K =   1
(PID.TID 0000.0001)                I=10      I=20      I=30      I=40      I=50      I=60      I=70      I=80      I=90
(PID.TID 0000.0001) |--J--|123456789|123456789|123456789|123456789|123456789|123456789|123456789|123456789|123456789|
(PID.TID 0000.0001)     40 qrrrr.oonnooopqtutt..................................................................mnnop
(PID.TID 0000.0001)     39 rssrrrrrrrqqpn...ut.....................................................mmmm........opqqqr
(PID.TID 0000.0001)     38 ssrrqqqqrrqpo...........................................................lkkll......onoqrrs
(PID.TID 0000.0001)     37 ssr..................................................................hg...lln...qppqr.rrrs
(PID.TID 0000.0001)     36 rr.........................................lkji....................feeegikmoop.pqrssssssss
(PID.TID 0000.0001)     35 rr.................................kkkk..lllllki...jijjj...........aa-....opqrrrrrrrssttss
(PID.TID 0000.0001)     34 ...................................jlll.kklllllk.ijkkkjih..................hlpqrqrrsstts..
(PID.TID 0000.0001)     33 ....................................iklkkkkkkkkkjkkjjjjjjii.................jmprrsstttttt.
(PID.TID 0000.0001)     32 ....................................iklllkllllllllkkkkkkkji................gilpstuuttuuut.
(PID.TID 0000.0001)     31 ....................................lmnonnnnoooonnmmmmllkjj..............loopqtvvvuuuuuu..
(PID.TID 0000.0001)     30 ...................................pppppppqqqqpppoooonnmlkk............ptvxwwvvwvvvvvvvu..
(PID.TID 0000.0001)     29 .................................pqqrqqqqqqrrrqqppqqqpponmll...........vxxxxxxwwwwwxwwxw..
(PID.TID 0000.0001)     28 ...............................prrrrrqqrrrrrsrrsrssssssrqonmm.........wxxxxxxxyyyyyyyyxx..
(PID.TID 0000.0001)     27 ..............xx..............prrrrrrrrrssssssstttssssssrqpoop...uwww.wwxxxyyy++zzzzyy....
(PID.TID 0000.0001)     26 ..............wxx...........ppqrrrrrrsssrrstsstttssrrrrrrrqppqqp.wwwvvwwwwwxyy+++zzyxw....
(PID.TID 0000.0001)     25 ..............wxxv...kkk...ooopqrrrrrssrrrrrrrssssqqpppppppppppoo...vvutuuvvwxyyyxxvvu....
(PID.TID 0000.0001)     24 ............uvvwwur.lmlk...nmm.pqqqqrrrrrqqqqrrqqrpppppooooonmmmnooo.uuuuuuttuvvvuvuut....
(PID.TID 0000.0001)     23 ............vvuvtqp.lmml...mln..ppppqpqppppppqpppppppppqppponnnnnoopm....xvuuuvvvvuuut....
(PID.TID 0000.0001)     22 r...........vuttsqqpnppn...mm.oppqqrrqqqqqqppppqqrrrqqqrrppppoopooomjj......uuvvvvvuttssrr
(PID.TID 0000.0001)     21 qmm........ttsssssssrsqon.....opqqqqqqqrrrrqqqssssssrrrrrrrrpqqqppomll........tvvvvuttssrr
(PID.TID 0000.0001)     20 sqq.......sttssrrsrrrrpol......p.qrqpqrrrrrrrstttttsssrrsssrqrrrrqqqpo.........wwwvvvuuutt
(PID.TID 0000.0001)     19 tsr.......ssssrrrrpppppnmmm...oqq.....qrqqsrrstttuuuttssttssrrssrrrrqq...........wwwvuvvvv
(PID.TID 0000.0001)     18 wut.......ssrrrrrqppppppppoooorrr...poqqqprrrttttuuutuuuuuutttttttutsss..........yyxwwxwxx
(PID.TID 0000.0001)     17 wwu.......s.rrrrrrqppppqqqqqqqr.....rrsrqrsssuusrtuuuvvvwwvvvuuuuutttss.........xyzyyyyxxx
(PID.TID 0000.0001)     16 vvt......ss.qrrssrqrqpqrrrrrrr.......ssrrstsstusrsuuuvwwwwxxwwvvvuttttsr........yz+zzzxwww
(PID.TID 0000.0001)     15 utss....stt.rrssstttsrrsrstsr.........ssstttssttsuuttuvvvvwxwwwwwuttsssrr......xyyyyxyyxwv
(PID.TID 0000.0001)     14 utts....sstrrssstuuuuuuuuuutt.........stttuutttttttuttttttuvvvvvvutsrqrrr.....vxxwwwwxwvwv
(PID.TID 0000.0001)     13 uuut....ttttttttuuuuuvtuuuuuu.........ttttuutttttttuutsssstttttstsqrqqppp....uwwwvuvvvutvv
(PID.TID 0000.0001)     12 ttttttttttttttttttttttssuuuuutuuut....tttttttttttsssssrrrrrrrqqqqqppppoo.....rvvuuttttttuu
(PID.TID 0000.0001)     11 rqsttttttttuuttttsssssrrstttttttsss..ttttts.tsssrrrrqqqqqppppoonnooooooo....oruttttsssrqrs
(PID.TID 0000.0001)     10 pppqrssrqqrqpqrssrrqqqqqqrrrrrrrrrrs.sssssr.rssrrqqpppppppooooonnnoooonn..moqrrrqqqqqqqqqq
(PID.TID 0000.0001)      9 oonooooooooonnnooooooooooppppppqqqqqrrrqrq.pppqqqqqppppppppppoooooooooll.lmoqqqqppooooopoo
(PID.TID 0000.0001)      8 nnnoonooooooonnnnnnnoooonoonoooppopqqqqqqqppopppqqqpppppppppppppppooopon.lnopppoooonnnnooo
(PID.TID 0000.0001)      7 ooooooooooopponnnooooooonnnnnonnooooooooopppppppoooooooooopppppppppoopqnnmnoooonnnonnnnnno
(PID.TID 0000.0001)      6 oooonnoonnnnooooooooooooonnnnnnnnnnnnnnnnoooopppooooooooooooooppppppppppoooooooonnnnnmnnnn
(PID.TID 0000.0001)      5 oooonnnnnnnnnnnnnnnnnoooooonnnnnnonnnnnnnnnoooooooooooonnnnnnooooooopoooonoooonnnnnnnooooo
(PID.TID 0000.0001)      4 oooonnnooonnnnnnnnnnnnnnoooooonnnooooonnnooooooooppponnnnmmmnnnnmnnoonnnnn..nnnooooooooooo
(PID.TID 0000.0001)      3 ooonnnnnnn............................nnoooooonnooooonnnnnnnoonnnnnnnnmmm..ooopooooooooooo
(PID.TID 0000.0001)      2 ..........................................pppooooonnnnnnoooppppo..nnnn.....qqqpppoooooo...
(PID.TID 0000.0001)      1 ..........................................................................................
(PID.TID 0000.0001) // =======================================================
(PID.TID 0000.0001) // END OF FIELD                                          =
(PID.TID 0000.0001) // =======================================================
(PID.TID 0000.0001) 
(PID.TID 0000.0001) Start initial hydrostatic pressure computation
(PID.TID 0000.0001) Pressure is predetermined for buoyancyRelation OCEANIC
(PID.TID 0000.0001) 
(PID.TID 0000.0001)  MDS_READ_FIELD: opening global file: trenberth_taux.bin
(PID.TID 0000.0001)  MDS_READ_FIELD: opening global file: trenberth_tauy.bin
(PID.TID 0000.0001)  MDS_READ_FIELD: opening global file: ncep_qnet.bin
(PID.TID 0000.0001)  MDS_READ_FIELD: opening global file: lev_sst.bin
(PID.TID 0000.0001)  MDS_READ_FIELD: opening global file: lev_sss.bin
(PID.TID 0000.0001) // =======================================================
(PID.TID 0000.0001) // Model current state
(PID.TID 0000.0001) // =======================================================
(PID.TID 0000.0001) 
S/R EXTERNAL_FIELDS_LOAD: Reading new data:   12    1         0  0.000000000000E+00
(PID.TID 0000.0001)  MDS_READ_FIELD: opening global file: trenberth_taux.bin
(PID.TID 0000.0001)  MDS_READ_FIELD: opening global file: trenberth_taux.bin
(PID.TID 0000.0001)  MDS_READ_FIELD: opening global file: trenberth_tauy.bin
(PID.TID 0000.0001)  MDS_READ_FIELD: opening global file: trenberth_tauy.bin
(PID.TID 0000.0001)  MDS_READ_FIELD: opening global file: ncep_qnet.bin
(PID.TID 0000.0001)  MDS_READ_FIELD: opening global file: ncep_qnet.bin
(PID.TID 0000.0001)  MDS_READ_FIELD: opening global file: lev_sst.bin
(PID.TID 0000.0001)  MDS_READ_FIELD: opening global file: lev_sst.bin
(PID.TID 0000.0001)  MDS_READ_FIELD: opening global file: lev_sss.bin
(PID.TID 0000.0001)  MDS_READ_FIELD: opening global file: lev_sss.bin
time,SST,SSS,fu,fv,Q,E-P,i0,i1,a,b =   0.0000E+00  5.3151E-02  3.4364E+01 -4.0500E-02 -6.3753E-02  2.6510E+02  0.0000E+00    12     1  5.0000E-01  5.0000E-01
time,fu0,fu1,fu =   0.0000E+00 -4.5368E-02 -3.5633E-02 -4.0500E-02  5.000000000000000E-01  5.000000000000000E-01
(PID.TID 0000.0001)  MDS_READ_FIELD: opening file: xx_hfluxm.0000000000.001.001.data
 cg2d: Sum(rhs),rhsMax =   1.47867829092263E-14  2.54952604282385E+00
time,SST,SSS,fu,fv,Q,E-P,i0,i1,a,b =   8.6400E+04  1.1350E-01  3.4387E+01 -4.0176E-02 -6.3320E-02  2.6514E+02  0.0000E+00    12     1  5.3333E-01  4.6667E-01
time,fu0,fu1,fu =   8.6400E+04 -4.5368E-02 -3.5633E-02 -4.0176E-02  5.333333333333333E-01  4.666666666666667E-01
 cg2d: Sum(rhs),rhsMax =   1.11299858218672E-14  2.62443215722193E+00
time,SST,SSS,fu,fv,Q,E-P,i0,i1,a,b =   1.7280E+05  1.7385E-01  3.4410E+01 -3.9851E-02 -6.2886E-02  2.6519E+02  0.0000E+00    12     1  5.6667E-01  4.3333E-01
time,fu0,fu1,fu =   1.7280E+05 -4.5368E-02 -3.5633E-02 -3.9851E-02  5.666666666666667E-01  4.333333333333333E-01
 cg2d: Sum(rhs),rhsMax =  -4.06480404890885E-14  2.39923446840278E+00
time,SST,SSS,fu,fv,Q,E-P,i0,i1,a,b =   2.5920E+05  2.3421E-01  3.4434E+01 -3.9527E-02 -6.2453E-02  2.6523E+02  0.0000E+00    12     1  6.0000E-01  4.0000E-01
time,fu0,fu1,fu =   2.5920E+05 -4.5368E-02 -3.5633E-02 -3.9527E-02  6.000000000000000E-01  4.000000000000000E-01
 cg2d: Sum(rhs),rhsMax =  -1.38500322321988E-14  2.21574359151329E+00
time,SST,SSS,fu,fv,Q,E-P,i0,i1,a,b =   3.4560E+05  2.9456E-01  3.4457E+01 -3.9202E-02 -6.2020E-02  2.6528E+02  0.0000E+00    12     1  6.3333E-01  3.6667E-01
time,fu0,fu1,fu =   3.4560E+05 -4.5368E-02 -3.5633E-02 -3.9202E-02  6.333333333333333E-01  3.666666666666667E-01
 cg2d: Sum(rhs),rhsMax =   3.63459262686661E-14  2.00995911954326E+00
time,SST,SSS,fu,fv,Q,E-P,i0,i1,a,b =   4.3200E+05  3.5491E-01  3.4481E+01 -3.8878E-02 -6.1587E-02  2.6532E+02  0.0000E+00    12     1  6.6667E-01  3.3333E-01
time,fu0,fu1,fu =   4.3200E+05 -4.5368E-02 -3.5633E-02 -3.8878E-02  6.666666666666666E-01  3.333333333333334E-01
 cg2d: Sum(rhs),rhsMax =  -4.51999548900517E-14  1.78612610533026E+00
time,SST,SSS,fu,fv,Q,E-P,i0,i1,a,b =   5.1840E+05  4.1526E-01  3.4504E+01 -3.8553E-02 -6.1154E-02  2.6537E+02  0.0000E+00    12     1  7.0000E-01  3.0000E-01
time,fu0,fu1,fu =   5.1840E+05 -4.5368E-02 -3.5633E-02 -3.8553E-02  7.000000000000000E-01  3.000000000000000E-01
 cg2d: Sum(rhs),rhsMax =  -2.44804176929847E-14  1.55419822260071E+00
time,SST,SSS,fu,fv,Q,E-P,i0,i1,a,b =   6.0480E+05  4.7561E-01  3.4527E+01 -3.8229E-02 -6.0721E-02  2.6541E+02  0.0000E+00    12     1  7.3333E-01  2.6667E-01
time,fu0,fu1,fu =   6.0480E+05 -4.5368E-02 -3.5633E-02 -3.8229E-02  7.333333333333333E-01  2.666666666666667E-01
 cg2d: Sum(rhs),rhsMax =  -5.29160049111965E-14  1.32823755952736E+00
time,SST,SSS,fu,fv,Q,E-P,i0,i1,a,b =   6.9120E+05  5.3596E-01  3.4551E+01 -3.7904E-02 -6.0288E-02  2.6546E+02  0.0000E+00    12     1  7.6667E-01  2.3333E-01
time,fu0,fu1,fu =   6.9120E+05 -4.5368E-02 -3.5633E-02 -3.7904E-02  7.666666666666667E-01  2.333333333333333E-01
 cg2d: Sum(rhs),rhsMax =  -2.97400992721464E-14  1.15613808765430E+00
time,SST,SSS,fu,fv,Q,E-P,i0,i1,a,b =   7.7760E+05  5.9632E-01  3.4574E+01 -3.7580E-02 -5.9855E-02  2.6550E+02  0.0000E+00    12     1  8.0000E-01  2.0000E-01
time,fu0,fu1,fu =   7.7760E+05 -4.5368E-02 -3.5633E-02 -3.7580E-02  8.000000000000000E-01  2.000000000000000E-01
 cg2d: Sum(rhs),rhsMax =   4.08700850940136E-14  1.08384893708049E+00
(PID.TID 0000.0001) %CHECKPOINT        10 ckptB
(PID.TID 0000.0001)  MDS_READ_FIELD: opening global file: bathymetry.bin
(PID.TID 0000.0001) // =======================================================
(PID.TID 0000.0001) // Field Model R_low (ini_masks_etc) at iteration          1
(PID.TID 0000.0001) // CMIN =         -5.200000000000000E+03
(PID.TID 0000.0001) // CMAX =         -1.200000000000000E+02
(PID.TID 0000.0001) // CINT =          1.881481481481482E+02
(PID.TID 0000.0001) // SYMBOLS (CMIN->CMAX): -abcdefghijklmnopqrstuvwxyz+
(PID.TID 0000.0001) //                  0.0: .
(PID.TID 0000.0001) // RANGE I (Lo:Hi:Step):(  -1:  92:   1)
(PID.TID 0000.0001) // RANGE J (Lo:Hi:Step):(  42:  -1:  -1)
(PID.TID 0000.0001) // RANGE K (Lo:Hi:Step):(   1:   1:   1)
(PID.TID 0000.0001) // =======================================================
(PID.TID 0000.0001) K =   1
(PID.TID 0000.0001) //                I=8       I=18      I=28      I=38      I=48      I=58      I=68      I=78      I=88
(PID.TID 0000.0001) // |--J--|101234567|901234567|901234567|901234567|901234567|901234567|901234567|901234567|901234567|9012
(PID.TID 0000.0001) //     42 ............................................zyxxmgfeeefefgimnpwwwy..+zyy.....yyyyoiiihhz+.....
(PID.TID 0000.0001) //     41 ..............................................................................................
(PID.TID 0000.0001) //     40 qlloqz+.++++zzz++++++..................................................................+++qllo
(PID.TID 0000.0001) //     39 slloorzzzzzzzzz+...++.....................................................yxxz........+zvusllo
(PID.TID 0000.0001) //     38 mqpporzzzzzz+++...........................................................zxxy+......zyyvsmqpp
(PID.TID 0000.0001) //     37 mmmuz..................................................................++...zy+...yttyy.+smmmu
(PID.TID 0000.0001) //     36 utt+.........................................mm++....................+++++++znmm.yoowssvuyutt+
(PID.TID 0000.0001) //     35 ++++.................................+zzz..rrmmkk+...+gghn...........+++....+nmiijlsoopuww++++
(PID.TID 0000.0001) //     34 .....................................+vvy.ggqyxv+y.ccdffhim..................+nihhikkihhm+....
(PID.TID 0000.0001) //     33 +.....................................uuz---h------aaabdefin+.................zqvddflifffw+...
(PID.TID 0000.0001) //     32 +.....................................+t----h---------acdfgnn................+++gdffkofffm+...
(PID.TID 0000.0001) //     31 ......................................-----ad--------abddegil..............qbaafccdhqqgddm....
(PID.TID 0000.0001) //     30 .....................................f----b--b------------abd............zfbb--fbcdosjfddi....
(PID.TID 0000.0001) //     29 ...................................tu----e---fjg----------abdf...........eaac--abfmijaadgi....
(PID.TID 0000.0001) //     28 .................................+xfl-------------------bdedefi.........qbaa---aemfbbaaejz....
(PID.TID 0000.0001) //     27 ................xx..............+wfgfpf--------eallc---bbbccefgi...+++x.qb-----akfa---ah......
(PID.TID 0000.0001) //     26 ................xnn...........+vd---dna------a--aicfna---aabdfghku.++xssuy-----bgca---ci......
(PID.TID 0000.0001) //     25 ................iiik...oo+...+ivd---doaa-bc--ilglf--aa---aabcghhkll...ssum+xaaacjbaabdjk......
(PID.TID 0000.0001) //     24 ..............xnheeft.kkk+...uii.aagdm----aa-----a-------bbbcdefjljjju.zummwwbbchba--abi......
(PID.TID 0000.0001) //     23 ..............xgheefp.iikw...uuw..fihi----fed-----eaaa--bbbbcdfflkjiiiq....zykccefa--abd......
(PID.TID 0000.0001) //     22 uss...........bbelffslffkk...zz.wqkeeqoheccdfa-----egabaabcdddegghliiiqq......xeeehheehccquss.
(PID.TID 0000.0001) //     21 bbeir........nbbcdjhqdddiiz.....wqfeelgghmedea-----bibbcddddddefghklnqoo........ieeflhgcccbbei
(PID.TID 0000.0001) //     20 bbder.......ldcccdgkccccidd......z.vkkktqqhegg----aaacddddddddefghkiiijl.........nhfa--gfcbbde
(PID.TID 0000.0001) //     19 cdaaf.......kddosggpaaaibbccx...+z+.....r+nlec---agaaabcddccddefikfgffff...........d---cjhcdaa
(PID.TID 0000.0001) //     18 d---d.......kglggvliaaaibbcaaeaiv++...qqzolhecccfdgkaabcdfccdeeikgfgffdd+..........d---djhd---
(PID.TID 0000.0001) //     17 c---c.......l.feewlfaaaoaa----aiv.....qqnllslmlofcdbaacceffffhhligfigeddj.........hd---ckhc---
(PID.TID 0000.0001) //     16 ba--c......tn.ddgnlfdaaqa-----lv.......vnllvllnwv--accivomfffhilhgfffeddjf........re--aeigba--
(PID.TID 0000.0001) //     15 b--dpz....+ll.ccdfhmdddlc----av.........otsxoomv---abccddfihgijkhgfffeejfff......+fd---ckfb--d
(PID.TID 0000.0001) //     14 c--mcl....weeqbaafilkfend--eagy.........hhstofft----aacdheefijkmjhhjijiffff.....zlfdaaadlfc--m
(PID.TID 0000.0001) //     13 cclbbg....nccobaaiddgkffqrqeaal.........eeutqfft------aaceeffhijlkjhhigfffq....+jgfodccflhcclb
(PID.TID 0000.0001) //     12 hgaaacw+iiicclemhdddfliigfdcaabfaaaz....ccsurqpc--------abcifffikiiihhggff.....kbbbdfffglhhgaa
(PID.TID 0000.0001) //     11 gcaaacbbifccennhbbdefnihgfdccaaaa----..dcccnt.ncab-------aabcdfilhggjiggff....l---abcefjlkgcaa
(PID.TID 0000.0001) //     10 fcaaccbdaacfrllfbbdegkmmljhfdddba----d.dcccfx.nyrebaba----abcdgilhfeegijgi..+w--aa-abcfilkfcaa
(PID.TID 0000.0001) //      9 ffcdcccaaaoqsolfdeehikihhlllgfedcccccdmdcccf.vyfaaaaaaaa--abdehmjhfeeefglv.++w-----abcdfklffcd
(PID.TID 0000.0001) //      8 iffjklcaafddffeeccvznkfffhhhlkjifgjkkfeeddfsyvcaaaaaaccdcccdfgjligedbbceg+.++xffn--cfddefliffj
(PID.TID 0000.0001) //      7 mqnnbbkkf--bmbaabbgtykfddeffeeddccdfhlffeelfbaaaaaacddeghgjgjlligeddaaabedfiiiiiisvkfkecchmqnn
(PID.TID 0000.0001) //      6 ca-------------aabcelttdddedddddccccdfkkiiffbaaaabcdgimmkmefecaaabbbaaabbdfiiiiispmmregifcca--
(PID.TID 0000.0001) //      5 -------a-------aaccehhhiddeddddddcccdfiikomodddefffmlmigedccaaaaaaaababbbdfiijsqgeccccbaa-----
(PID.TID 0000.0001) //      4 -ahebaabbbbbeihffgijiiiijpywnnpokkomkiiijmmmolkommmgffeeedccaaaaaabbcccefhmz..yjgeccccbaa--ahe
(PID.TID 0000.0001) //      3 ffhhrpjiiwyy............................yxotmjjjjgfeeeeeeddeffffheddeghjkyy..yqjgeddccdbbgffhh
(PID.TID 0000.0001) //      2 ............................................zyxxmgfeeefefgimnpwwwy..+zyy.....yyyyoiiihhz+.....
(PID.TID 0000.0001) //      1 ..............................................................................................
(PID.TID 0000.0001) //      0 qlloqz+.++++zzz++++++..................................................................+++qllo
(PID.TID 0000.0001) //     -1 slloorzzzzzzzzz+...++.....................................................yxxz........+zvusllo
(PID.TID 0000.0001) // =======================================================
(PID.TID 0000.0001) // END OF FIELD                                          =
(PID.TID 0000.0001) // =======================================================
(PID.TID 0000.0001) 
(PID.TID 0000.0001) // =======================================================
(PID.TID 0000.0001) // Field Model Ro_surf (ini_masks_etc) at iteration          1
(PID.TID 0000.0001) // CMIN =          1.000000000000000E+32
(PID.TID 0000.0001) // CMAX =         -1.000000000000000E+32
(PID.TID 0000.0001) // CINT =          0.000000000000000E+00
(PID.TID 0000.0001) // SYMBOLS (CMIN->CMAX): -abcdefghijklmnopqrstuvwxyz+
(PID.TID 0000.0001) //                  0.0: .
(PID.TID 0000.0001) // RANGE I (Lo:Hi:Step):(  -1:  92:   1)
(PID.TID 0000.0001) // RANGE J (Lo:Hi:Step):(  42:  -1:  -1)
(PID.TID 0000.0001) // RANGE K (Lo:Hi:Step):(   1:   1:   1)
(PID.TID 0000.0001) // =======================================================
(PID.TID 0000.0001) // =======================================================
(PID.TID 0000.0001) // END OF FIELD                                          =
(PID.TID 0000.0001) // =======================================================
(PID.TID 0000.0001) 
(PID.TID 0000.0001) // =======================================================
(PID.TID 0000.0001) // Field hFacC at iteration          1
(PID.TID 0000.0001) // CMIN =          1.000000000000000E+00
(PID.TID 0000.0001) // CMAX =          1.000000000000000E+00
(PID.TID 0000.0001) // CINT =          0.000000000000000E+00
(PID.TID 0000.0001) // SYMBOLS (CMIN->CMAX): -abcdefghijklmnopqrstuvwxyz+
(PID.TID 0000.0001) //                  0.0: .
(PID.TID 0000.0001) // RANGE I (Lo:Hi:Step):(  -1:  92:   1)
(PID.TID 0000.0001) // RANGE J (Lo:Hi:Step):(  42:  -1:  -1)
(PID.TID 0000.0001) // RANGE K (Lo:Hi:Step):(   1:   1:   1)
(PID.TID 0000.0001) // =======================================================
(PID.TID 0000.0001) // =======================================================
(PID.TID 0000.0001) // END OF FIELD                                          =
(PID.TID 0000.0001) // =======================================================
(PID.TID 0000.0001) 
(PID.TID 0000.0001) // =======================================================
(PID.TID 0000.0001) // Field hFacW at iteration          1
(PID.TID 0000.0001) // CMIN =          1.000000000000000E+00
(PID.TID 0000.0001) // CMAX =          1.000000000000000E+00
(PID.TID 0000.0001) // CINT =          0.000000000000000E+00
(PID.TID 0000.0001) // SYMBOLS (CMIN->CMAX): -abcdefghijklmnopqrstuvwxyz+
(PID.TID 0000.0001) //                  0.0: .
(PID.TID 0000.0001) // RANGE I (Lo:Hi:Step):(  -1:  92:   1)
(PID.TID 0000.0001) // RANGE J (Lo:Hi:Step):(  42:  -1:  -1)
(PID.TID 0000.0001) // RANGE K (Lo:Hi:Step):(   1:   1:   1)
(PID.TID 0000.0001) // =======================================================
(PID.TID 0000.0001) // =======================================================
(PID.TID 0000.0001) // END OF FIELD                                          =
(PID.TID 0000.0001) // =======================================================
(PID.TID 0000.0001) 
(PID.TID 0000.0001) // =======================================================
(PID.TID 0000.0001) // Field hFacS at iteration          1
(PID.TID 0000.0001) // CMIN =          1.000000000000000E+00
(PID.TID 0000.0001) // CMAX =          1.000000000000000E+00
(PID.TID 0000.0001) // CINT =          0.000000000000000E+00
(PID.TID 0000.0001) // SYMBOLS (CMIN->CMAX): -abcdefghijklmnopqrstuvwxyz+
(PID.TID 0000.0001) //                  0.0: .
(PID.TID 0000.0001) // RANGE I (Lo:Hi:Step):(  -1:  92:   1)
(PID.TID 0000.0001) // RANGE J (Lo:Hi:Step):(  42:  -1:  -1)
(PID.TID 0000.0001) // RANGE K (Lo:Hi:Step):(   1:   1:   1)
(PID.TID 0000.0001) // =======================================================
(PID.TID 0000.0001) // =======================================================
(PID.TID 0000.0001) // END OF FIELD                                          =
(PID.TID 0000.0001) // =======================================================
(PID.TID 0000.0001) 
(PID.TID 0000.0001) %MON surfExpanfCori_max           =   1.4265546244797E-04
(PID.TID 0000.0001) %MON surfExpanfCori_min           =  -1.4265546244797E-04
(PID.TID 0000.0001) %MON surfExpanfCori_mean          =  -1.2347858075529E-21
(PID.TID 0000.0001) %MON surfExpanfCori_sd            =   9.6599226301547E-05
(PID.TID 0000.0001) %MON surfExpanfCoriG_max          =   1.4151032568025E-04
(PID.TID 0000.0001) %MON surfExpanfCoriG_min          =  -1.4362679550910E-04
(PID.TID 0000.0001) %MON surfExpanfCoriG_mean         =  -3.5906698877274E-06
(PID.TID 0000.0001) %MON surfExpanfCoriG_sd           =   9.6548915696244E-05
(PID.TID 0000.0001) %MON surfExpanfCoriCos_max        =   1.4575362704741E-04
(PID.TID 0000.0001) %MON surfExpanfCoriCos_min        =   3.0322354601388E-05
(PID.TID 0000.0001) %MON surfExpanfCoriCos_mean       =   1.0288600773632E-04
(PID.TID 0000.0001) %MON surfExpanfCoriCos_sd         =   3.6784304327266E-05
(PID.TID 0000.0001) INI_CG2D: CG2D normalisation factor =  6.5682677425711703E-05
(PID.TID 0000.0001) 
(PID.TID 0000.0001)  MDS_READ_FIELD: opening global file: lev_t.bin
(PID.TID 0000.0001) // =======================================================
(PID.TID 0000.0001) // Field Initial Temperature at iteration          1
(PID.TID 0000.0001) // CMIN =         -1.900000000000000E+00
(PID.TID 0000.0001) // CMAX =          2.973338890075684E+01
(PID.TID 0000.0001) // CINT =          1.171606996324327E+00
(PID.TID 0000.0001) // SYMBOLS (CMIN->CMAX): -abcdefghijklmnopqrstuvwxyz+
(PID.TID 0000.0001) //                  0.0: .
(PID.TID 0000.0001) // RANGE I (Lo:Hi:Step):(   1:  90:   1)
(PID.TID 0000.0001) // RANGE J (Lo:Hi:Step):(  40:   1:  -1)
(PID.TID 0000.0001) // RANGE K (Lo:Hi:Step):(   1:   1:   1)
(PID.TID 0000.0001) // =======================================================
(PID.TID 0000.0001) K =   1
(PID.TID 0000.0001)                I=10      I=20      I=30      I=40      I=50      I=60      I=70      I=80      I=90
(PID.TID 0000.0001) |--J--|123456789|123456789|123456789|123456789|123456789|123456789|123456789|123456789|123456789|
(PID.TID 0000.0001)     40 bccdd.baa----abdedd..................................................................bbbbb
(PID.TID 0000.0001)     39 ccdddddccbbbaa...ed.....................................................----........bbbbbb
(PID.TID 0000.0001)     38 fffgfedeedddc...........................................................-----......cbbbcde
(PID.TID 0000.0001)     37 ghh..................................................................bc...bbc...edeed.defg
(PID.TID 0000.0001)     36 hh.........................................ddcb....................dcccbabccdd.eefghhihhih
(PID.TID 0000.0001)     35 hh.................................aaab..dddeddd...ffggg...........ccc....ddeeeffghijjjjih
(PID.TID 0000.0001)     34 ...................................babb.deeeeeee.ffffgghh..................ccdffghijkkkj..
(PID.TID 0000.0001)     33 ....................................accdddeeeeefffffgghhiii.................bcfijkkllllkk.
(PID.TID 0000.0001)     32 ....................................bdddeffgffgghhhhhiiijjj................dccglmnmmmmlll.
(PID.TID 0000.0001)     31 ....................................fghiiiijjjjjjkkkkklllkk..............ikkjjmooooonnmm..
(PID.TID 0000.0001)     30 ...................................mmmnmmmmmmmmmmmmmnnnnnmm............moqrrrqrqqqpppooo..
(PID.TID 0000.0001)     29 .................................pqqqqqpppppppppoppoppppponm...........ssssssrrrrrqqqqpp..
(PID.TID 0000.0001)     28 ...............................prssssrrrsssrrrrrrrrrrrrrqqpoo.........uttssstssrssrrrqqq..
(PID.TID 0000.0001)     27 ..............vv..............stuttuuuuutuuuuuuuuuuttttssrrqqq...stuu.vvvuuuuutttttsss....
(PID.TID 0000.0001)     26 ..............vvv...........uuvvvvvwwwwwwwwvvvvvvvvvuuutttsssttv.uuvxxwwwwwwvvvvuuttsr....
(PID.TID 0000.0001)     25 ..............wwwx...xxx...vvvxxxxxyyxxxxxxxxxwwwwwvvvvvuuuuuvwwx...xxxxxxwwwwwwvvutsr....
(PID.TID 0000.0001)     24 ............wwwwxyy.xxyy...wxx.yyyyyyyyyyyxxxxxxxxwwwwwwwvvwwxxyywww.xxxxxxxxxxwwwvvur....
(PID.TID 0000.0001)     23 ............xxxyyyz.xyyy...xxx..yyyyzzyyyyyyyyxxxxxxxxxwwwwwxxxwwwwwx....vwxxxxwwwwwvu....
(PID.TID 0000.0001)     22 w...........xxyyyzyyyyyz...xx.yyzzzzzzzzzzzzzyyzyyyyyyxxwwxxxxwvvvwwxw......yyyyxxxxxxwxxw
(PID.TID 0000.0001)     21 xxx........xxxxyyzzzzzzz+.....zyzzzzzzz++zzzzyyyyyyyyxxwvvwwwwvvvvvvvu........yyyyyyyyyxxx
(PID.TID 0000.0001)     20 xww.......xyyyyxyyzzzzzz+......z.zzzzz+++zzzzzzyyyyyxxxxwvwxwvuuuuuuut.........yyyyxxxxwww
(PID.TID 0000.0001)     19 vvv.......yyyyxwwxyzyyzzzzz...zzz.....++++++z++z+zzzyyyyxxxxwwvvvvvvvu...........yyxxxwwww
(PID.TID 0000.0001)     18 uut.......zzyyywwxyzyyyyzzyzzzzzz...z+z++++zz+++++++zzzyyyyxxwwwvvvvvtt..........yyxxwvvwv
(PID.TID 0000.0001)     17 uus.......z.yyyyyyxyzzyyyyyyyzz.....yzzzzzzzzzzzzzzzzzzyyyyxxwwvuuvvuut.........yyyxxwttvu
(PID.TID 0000.0001)     16 utr......yy.zyyyyxxxxxxxwxxxxy.......yyyyyyyyyyyyyyyyyyyyyyyxxwvvvuuutts........xyyyxwvuuu
(PID.TID 0000.0001)     15 ttrr....xxx.xxxwxwwwwvwwvvvww.........xwxxxxxxxxxxxxxxxxxyyyxwwwvvuttssrr......wxxxxxwwvuu
(PID.TID 0000.0001)     14 ttsq....xyxwwxwvwwwvutuuuuuuu.........wwvwwwwvwvvwwwvwvvwwwwwwvvvuuutssrr.....vwwwwwwwvvvu
(PID.TID 0000.0001)     13 tttr....wwwvvvtttuuuutttssttt.........vvvuuuuuuutttttuuuuuvwwwuuuttttssrr....uvvvvvvvvvvut
(PID.TID 0000.0001)     12 sssssstttutssssrrrrrstrqqrrssqqrrq....uuttssssrrrrrrrrrrrstttssssrssrrqp.....uuuttssttssss
(PID.TID 0000.0001)     11 poprsssrqqqqqrqppooopqpoppppppppppp..sssrrr.rqpppqqqqppppqqqoppqqqqrqqpp....prsrqqqqqppppq
(PID.TID 0000.0001)     10 lllmoooonmnnmnnnnmmmmmmlmmlllmnnnnon.qqqppp.ppppppooooooooonmnnnonnooooo..nmoponnmnnnnnmll
(PID.TID 0000.0001)      9 ihhiiiihhhhhhiiihiiiiihhhiiiijjkkmnllnnnnn.mmmmnnnnmmmmnnmmlklllllklllll.mllmmllkjiijjihhi
(PID.TID 0000.0001)      8 eeeeeeeedefgggffeeffggffffggghiiiijjijklklkkkkkkkklllkkkkjjiiijkjjjjjjkj.kkjjiihggffffedde
(PID.TID 0000.0001)      7 cccccddeedddefeddddddddddefeefffffgggghiiiiiijjjihhgggghhhhhghhhhhhhiiiihiihhgfeddddddcccc
(PID.TID 0000.0001)      6 abbcccddcccccdddddccdddddddccddddddeeeeffggggghhgeddddddeeeeeeefggggghggggffeedccbbbbbbbba
(PID.TID 0000.0001)      5 bbbcccccccccccccccccccccbbccccdddddddcccddeeddeedcbbbbbbccccccdddeeeeeddddddccbbbbaaaaaaab
(PID.TID 0000.0001)      4 bbbbbbbaaabbbbbbbbbbbbaabbabbbbcbbbbbbbbbbbbbbbbbbbabbaaabbbbbbbbbbbbbbbbb..a--aaabbbaaabb
(PID.TID 0000.0001)      3 bbbbaaa-a-............................bbaaaaaaaaaaaaaaaaaaaaaaaaaaaaaaaab..aaaaaaaabbbaaaa
(PID.TID 0000.0001)      2 ..........................................baaaaaaaaaaaa-------aa..aaaa.....aaaaaaaaaaaa...
(PID.TID 0000.0001)      1 ..........................................................................................
(PID.TID 0000.0001) // =======================================================
(PID.TID 0000.0001) // END OF FIELD                                          =
(PID.TID 0000.0001) // =======================================================
(PID.TID 0000.0001) 
(PID.TID 0000.0001)  MDS_READ_FIELD: opening global file: lev_s.bin
(PID.TID 0000.0001) // =======================================================
(PID.TID 0000.0001) // Field Initial Salinity at iteration          1
(PID.TID 0000.0001) // CMIN =          2.975276947021484E+01
(PID.TID 0000.0001) // CMAX =          3.747562789916992E+01
(PID.TID 0000.0001) // CINT =          2.860317936650029E-01
(PID.TID 0000.0001) // SYMBOLS (CMIN->CMAX): -abcdefghijklmnopqrstuvwxyz+
(PID.TID 0000.0001) //                  0.0: .
(PID.TID 0000.0001) // RANGE I (Lo:Hi:Step):(   1:  90:   1)
(PID.TID 0000.0001) // RANGE J (Lo:Hi:Step):(  40:   1:  -1)
(PID.TID 0000.0001) // RANGE K (Lo:Hi:Step):(   1:   1:   1)
(PID.TID 0000.0001) // =======================================================
(PID.TID 0000.0001) K =   1
(PID.TID 0000.0001)                I=10      I=20      I=30      I=40      I=50      I=60      I=70      I=80      I=90
(PID.TID 0000.0001) |--J--|123456789|123456789|123456789|123456789|123456789|123456789|123456789|123456789|123456789|
(PID.TID 0000.0001)     40 qrrrr.oonnooopqtutt..................................................................mnnop
(PID.TID 0000.0001)     39 rssrrrrrrrqqpn...ut.....................................................mmmm........opqqqr
(PID.TID 0000.0001)     38 ssrrqqqqrrqpo...........................................................lkkll......onoqrrs
(PID.TID 0000.0001)     37 ssr..................................................................hg...lln...qppqr.rrrs
(PID.TID 0000.0001)     36 rr.........................................lkji....................feeegikmoop.pqrssssssss
(PID.TID 0000.0001)     35 rr.................................kkkk..lllllki...jijjj...........aa-....opqrrrrrrrssttss
(PID.TID 0000.0001)     34 ...................................jlll.kklllllk.ijkkkjih..................hlpqrqrrsstts..
(PID.TID 0000.0001)     33 ....................................iklkkkkkkkkkjkkjjjjjjii.................jmprrsstttttt.
(PID.TID 0000.0001)     32 ....................................iklllkllllllllkkkkkkkji................gilpstuuttuuut.
(PID.TID 0000.0001)     31 ....................................lmnonnnnoooonnmmmmllkjj..............loopqtvvvuuuuuu..
(PID.TID 0000.0001)     30 ...................................pppppppqqqqpppoooonnmlkk............ptvxwwvvwvvvvvvvu..
(PID.TID 0000.0001)     29 .................................pqqrqqqqqqrrrqqppqqqpponmll...........vxxxxxxwwwwwxwwxw..
(PID.TID 0000.0001)     28 ...............................prrrrrqqrrrrrsrrsrssssssrqonmm.........wxxxxxxxyyyyyyyyxx..
(PID.TID 0000.0001)     27 ..............xx..............prrrrrrrrrssssssstttssssssrqpoop...uwww.wwxxxyyy++zzzzyy....
(PID.TID 0000.0001)     26 ..............wxx...........ppqrrrrrrsssrrstsstttssrrrrrrrqppqqp.wwwvvwwwwwxyy+++zzyxw....
(PID.TID 0000.0001)     25 ..............wxxv...kkk...ooopqrrrrrssrrrrrrrssssqqpppppppppppoo...vvutuuvvwxyyyxxvvu....
(PID.TID 0000.0001)     24 ............uvvwwur.lmlk...nmm.pqqqqrrrrrqqqqrrqqrpppppooooonmmmnooo.uuuuuuttuvvvuvuut....
(PID.TID 0000.0001)     23 ............vvuvtqp.lmml...mln..ppppqpqppppppqpppppppppqppponnnnnoopm....xvuuuvvvvuuut....
(PID.TID 0000.0001)     22 r...........vuttsqqpnppn...mm.oppqqrrqqqqqqppppqqrrrqqqrrppppoopooomjj......uuvvvvvuttssrr
(PID.TID 0000.0001)     21 qmm........ttsssssssrsqon.....opqqqqqqqrrrrqqqssssssrrrrrrrrpqqqppomll........tvvvvuttssrr
(PID.TID 0000.0001)     20 sqq.......sttssrrsrrrrpol......p.qrqpqrrrrrrrstttttsssrrsssrqrrrrqqqpo.........wwwvvvuuutt
(PID.TID 0000.0001)     19 tsr.......ssssrrrrpppppnmmm...oqq.....qrqqsrrstttuuuttssttssrrssrrrrqq...........wwwvuvvvv
(PID.TID 0000.0001)     18 wut.......ssrrrrrqppppppppoooorrr...poqqqprrrttttuuutuuuuuutttttttutsss..........yyxwwxwxx
(PID.TID 0000.0001)     17 wwu.......s.rrrrrrqppppqqqqqqqr.....rrsrqrsssuusrtuuuvvvwwvvvuuuuutttss.........xyzyyyyxxx
(PID.TID 0000.0001)     16 vvt......ss.qrrssrqrqpqrrrrrrr.......ssrrstsstusrsuuuvwwwwxxwwvvvuttttsr........yz+zzzxwww
(PID.TID 0000.0001)     15 utss....stt.rrssstttsrrsrstsr.........ssstttssttsuuttuvvvvwxwwwwwuttsssrr......xyyyyxyyxwv
(PID.TID 0000.0001)     14 utts....sstrrssstuuuuuuuuuutt.........stttuutttttttuttttttuvvvvvvutsrqrrr.....vxxwwwwxwvwv
(PID.TID 0000.0001)     13 uuut....ttttttttuuuuuvtuuuuuu.........ttttuutttttttuutsssstttttstsqrqqppp....uwwwvuvvvutvv
(PID.TID 0000.0001)     12 ttttttttttttttttttttttssuuuuutuuut....tttttttttttsssssrrrrrrrqqqqqppppoo.....rvvuuttttttuu
(PID.TID 0000.0001)     11 rqsttttttttuuttttsssssrrstttttttsss..ttttts.tsssrrrrqqqqqppppoonnooooooo....oruttttsssrqrs
(PID.TID 0000.0001)     10 pppqrssrqqrqpqrssrrqqqqqqrrrrrrrrrrs.sssssr.rssrrqqpppppppooooonnnoooonn..moqrrrqqqqqqqqqq
(PID.TID 0000.0001)      9 oonooooooooonnnooooooooooppppppqqqqqrrrqrq.pppqqqqqppppppppppoooooooooll.lmoqqqqppooooopoo
(PID.TID 0000.0001)      8 nnnoonooooooonnnnnnnoooonoonoooppopqqqqqqqppopppqqqpppppppppppppppooopon.lnopppoooonnnnooo
(PID.TID 0000.0001)      7 ooooooooooopponnnooooooonnnnnonnooooooooopppppppoooooooooopppppppppoopqnnmnoooonnnonnnnnno
(PID.TID 0000.0001)      6 oooonnoonnnnooooooooooooonnnnnnnnnnnnnnnnoooopppooooooooooooooppppppppppoooooooonnnnnmnnnn
(PID.TID 0000.0001)      5 oooonnnnnnnnnnnnnnnnnoooooonnnnnnonnnnnnnnnoooooooooooonnnnnnooooooopoooonoooonnnnnnnooooo
(PID.TID 0000.0001)      4 oooonnnooonnnnnnnnnnnnnnoooooonnnooooonnnooooooooppponnnnmmmnnnnmnnoonnnnn..nnnooooooooooo
(PID.TID 0000.0001)      3 ooonnnnnnn............................nnoooooonnooooonnnnnnnoonnnnnnnnmmm..ooopooooooooooo
(PID.TID 0000.0001)      2 ..........................................pppooooonnnnnnoooppppo..nnnn.....qqqpppoooooo...
(PID.TID 0000.0001)      1 ..........................................................................................
(PID.TID 0000.0001) // =======================================================
(PID.TID 0000.0001) // END OF FIELD                                          =
(PID.TID 0000.0001) // =======================================================
(PID.TID 0000.0001) 
(PID.TID 0000.0001) Start initial hydrostatic pressure computation
(PID.TID 0000.0001) Pressure is predetermined for buoyancyRelation OCEANIC
(PID.TID 0000.0001) 
(PID.TID 0000.0001)  MDS_READ_FIELD: opening global file: trenberth_taux.bin
(PID.TID 0000.0001)  MDS_READ_FIELD: opening global file: trenberth_tauy.bin
(PID.TID 0000.0001)  MDS_READ_FIELD: opening global file: ncep_qnet.bin
(PID.TID 0000.0001)  MDS_READ_FIELD: opening global file: lev_sst.bin
(PID.TID 0000.0001)  MDS_READ_FIELD: opening global file: lev_sss.bin
(PID.TID 0000.0001) // =======================================================
(PID.TID 0000.0001) // Model current state
(PID.TID 0000.0001) // =======================================================
(PID.TID 0000.0001) 
S/R EXTERNAL_FIELDS_LOAD: Reading new data:   12    1         0  0.000000000000E+00
(PID.TID 0000.0001)  MDS_READ_FIELD: opening global file: trenberth_taux.bin
(PID.TID 0000.0001)  MDS_READ_FIELD: opening global file: trenberth_taux.bin
(PID.TID 0000.0001)  MDS_READ_FIELD: opening global file: trenberth_tauy.bin
(PID.TID 0000.0001)  MDS_READ_FIELD: opening global file: trenberth_tauy.bin
(PID.TID 0000.0001)  MDS_READ_FIELD: opening global file: ncep_qnet.bin
(PID.TID 0000.0001)  MDS_READ_FIELD: opening global file: ncep_qnet.bin
(PID.TID 0000.0001)  MDS_READ_FIELD: opening global file: lev_sst.bin
(PID.TID 0000.0001)  MDS_READ_FIELD: opening global file: lev_sst.bin
(PID.TID 0000.0001)  MDS_READ_FIELD: opening global file: lev_sss.bin
(PID.TID 0000.0001)  MDS_READ_FIELD: opening global file: lev_sss.bin
time,SST,SSS,fu,fv,Q,E-P,i0,i1,a,b =   0.0000E+00  5.3151E-02  3.4364E+01 -4.0500E-02 -6.3753E-02  2.6510E+02  0.0000E+00    12     1  5.0000E-01  5.0000E-01
time,fu0,fu1,fu =   0.0000E+00 -4.5368E-02 -3.5633E-02 -4.0500E-02  5.000000000000000E-01  5.000000000000000E-01
(PID.TID 0000.0001)  MDS_READ_FIELD: opening file: xx_hfluxm.0000000000.001.001.data
 cg2d: Sum(rhs),rhsMax =   1.47867829092263E-14  2.54952604282385E+00
time,SST,SSS,fu,fv,Q,E-P,i0,i1,a,b =   8.6400E+04  1.1350E-01  3.4387E+01 -4.0176E-02 -6.3320E-02  2.6514E+02  0.0000E+00    12     1  5.3333E-01  4.6667E-01
time,fu0,fu1,fu =   8.6400E+04 -4.5368E-02 -3.5633E-02 -4.0176E-02  5.333333333333333E-01  4.666666666666667E-01
 cg2d: Sum(rhs),rhsMax =   1.11299858218672E-14  2.62443215722193E+00
time,SST,SSS,fu,fv,Q,E-P,i0,i1,a,b =   1.7280E+05  1.7385E-01  3.4410E+01 -3.9851E-02 -6.2886E-02  2.6519E+02  0.0000E+00    12     1  5.6667E-01  4.3333E-01
time,fu0,fu1,fu =   1.7280E+05 -4.5368E-02 -3.5633E-02 -3.9851E-02  5.666666666666667E-01  4.333333333333333E-01
 cg2d: Sum(rhs),rhsMax =  -4.06480404890885E-14  2.39923446840278E+00
time,SST,SSS,fu,fv,Q,E-P,i0,i1,a,b =   2.5920E+05  2.3421E-01  3.4434E+01 -3.9527E-02 -6.2453E-02  2.6523E+02  0.0000E+00    12     1  6.0000E-01  4.0000E-01
time,fu0,fu1,fu =   2.5920E+05 -4.5368E-02 -3.5633E-02 -3.9527E-02  6.000000000000000E-01  4.000000000000000E-01
 cg2d: Sum(rhs),rhsMax =  -1.38500322321988E-14  2.21574359151329E+00
time,SST,SSS,fu,fv,Q,E-P,i0,i1,a,b =   3.4560E+05  2.9456E-01  3.4457E+01 -3.9202E-02 -6.2020E-02  2.6528E+02  0.0000E+00    12     1  6.3333E-01  3.6667E-01
time,fu0,fu1,fu =   3.4560E+05 -4.5368E-02 -3.5633E-02 -3.9202E-02  6.333333333333333E-01  3.666666666666667E-01
 cg2d: Sum(rhs),rhsMax =   3.63459262686661E-14  2.00995911954326E+00
time,SST,SSS,fu,fv,Q,E-P,i0,i1,a,b =   4.3200E+05  3.5491E-01  3.4481E+01 -3.8878E-02 -6.1587E-02  2.6532E+02  0.0000E+00    12     1  6.6667E-01  3.3333E-01
time,fu0,fu1,fu =   4.3200E+05 -4.5368E-02 -3.5633E-02 -3.8878E-02  6.666666666666666E-01  3.333333333333334E-01
 cg2d: Sum(rhs),rhsMax =  -4.51999548900517E-14  1.78612610533026E+00
time,SST,SSS,fu,fv,Q,E-P,i0,i1,a,b =   5.1840E+05  4.1526E-01  3.4504E+01 -3.8553E-02 -6.1154E-02  2.6537E+02  0.0000E+00    12     1  7.0000E-01  3.0000E-01
time,fu0,fu1,fu =   5.1840E+05 -4.5368E-02 -3.5633E-02 -3.8553E-02  7.000000000000000E-01  3.000000000000000E-01
 cg2d: Sum(rhs),rhsMax =  -2.44804176929847E-14  1.55419822260071E+00
time,SST,SSS,fu,fv,Q,E-P,i0,i1,a,b =   6.0480E+05  4.7561E-01  3.4527E+01 -3.8229E-02 -6.0721E-02  2.6541E+02  0.0000E+00    12     1  7.3333E-01  2.6667E-01
time,fu0,fu1,fu =   6.0480E+05 -4.5368E-02 -3.5633E-02 -3.8229E-02  7.333333333333333E-01  2.666666666666667E-01
 cg2d: Sum(rhs),rhsMax =  -5.29160049111965E-14  1.32823755952736E+00
time,SST,SSS,fu,fv,Q,E-P,i0,i1,a,b =   6.9120E+05  5.3596E-01  3.4551E+01 -3.7904E-02 -6.0288E-02  2.6546E+02  0.0000E+00    12     1  7.6667E-01  2.3333E-01
time,fu0,fu1,fu =   6.9120E+05 -4.5368E-02 -3.5633E-02 -3.7904E-02  7.666666666666667E-01  2.333333333333333E-01
 cg2d: Sum(rhs),rhsMax =  -2.97400992721464E-14  1.15613808765430E+00
time,SST,SSS,fu,fv,Q,E-P,i0,i1,a,b =   7.7760E+05  5.9632E-01  3.4574E+01 -3.7580E-02 -5.9855E-02  2.6550E+02  0.0000E+00    12     1  8.0000E-01  2.0000E-01
time,fu0,fu1,fu =   7.7760E+05 -4.5368E-02 -3.5633E-02 -3.7580E-02  8.000000000000000E-01  2.000000000000000E-01
 cg2d: Sum(rhs),rhsMax =   4.08700850940136E-14  1.08384893708049E+00
(PID.TID 0000.0001) %CHECKPOINT        10 ckptA
(PID.TID 0000.0001)  MDS_READ_FIELD: opening global file: bathymetry.bin
(PID.TID 0000.0001) // =======================================================
(PID.TID 0000.0001) // Field Model R_low (ini_masks_etc) at iteration          1
(PID.TID 0000.0001) // CMIN =         -5.200000000000000E+03
(PID.TID 0000.0001) // CMAX =         -1.200000000000000E+02
(PID.TID 0000.0001) // CINT =          1.881481481481482E+02
(PID.TID 0000.0001) // SYMBOLS (CMIN->CMAX): -abcdefghijklmnopqrstuvwxyz+
(PID.TID 0000.0001) //                  0.0: .
(PID.TID 0000.0001) // RANGE I (Lo:Hi:Step):(  -1:  92:   1)
(PID.TID 0000.0001) // RANGE J (Lo:Hi:Step):(  42:  -1:  -1)
(PID.TID 0000.0001) // RANGE K (Lo:Hi:Step):(   1:   1:   1)
(PID.TID 0000.0001) // =======================================================
(PID.TID 0000.0001) K =   1
(PID.TID 0000.0001) //                I=8       I=18      I=28      I=38      I=48      I=58      I=68      I=78      I=88
(PID.TID 0000.0001) // |--J--|101234567|901234567|901234567|901234567|901234567|901234567|901234567|901234567|901234567|9012
(PID.TID 0000.0001) //     42 ............................................zyxxmgfeeefefgimnpwwwy..+zyy.....yyyyoiiihhz+.....
(PID.TID 0000.0001) //     41 ..............................................................................................
(PID.TID 0000.0001) //     40 qlloqz+.++++zzz++++++..................................................................+++qllo
(PID.TID 0000.0001) //     39 slloorzzzzzzzzz+...++.....................................................yxxz........+zvusllo
(PID.TID 0000.0001) //     38 mqpporzzzzzz+++...........................................................zxxy+......zyyvsmqpp
(PID.TID 0000.0001) //     37 mmmuz..................................................................++...zy+...yttyy.+smmmu
(PID.TID 0000.0001) //     36 utt+.........................................mm++....................+++++++znmm.yoowssvuyutt+
(PID.TID 0000.0001) //     35 ++++.................................+zzz..rrmmkk+...+gghn...........+++....+nmiijlsoopuww++++
(PID.TID 0000.0001) //     34 .....................................+vvy.ggqyxv+y.ccdffhim..................+nihhikkihhm+....
(PID.TID 0000.0001) //     33 +.....................................uuz---h------aaabdefin+.................zqvddflifffw+...
(PID.TID 0000.0001) //     32 +.....................................+t----h---------acdfgnn................+++gdffkofffm+...
(PID.TID 0000.0001) //     31 ......................................-----ad--------abddegil..............qbaafccdhqqgddm....
(PID.TID 0000.0001) //     30 .....................................f----b--b------------abd............zfbb--fbcdosjfddi....
(PID.TID 0000.0001) //     29 ...................................tu----e---fjg----------abdf...........eaac--abfmijaadgi....
(PID.TID 0000.0001) //     28 .................................+xfl-------------------bdedefi.........qbaa---aemfbbaaejz....
(PID.TID 0000.0001) //     27 ................xx..............+wfgfpf--------eallc---bbbccefgi...+++x.qb-----akfa---ah......
(PID.TID 0000.0001) //     26 ................xnn...........+vd---dna------a--aicfna---aabdfghku.++xssuy-----bgca---ci......
(PID.TID 0000.0001) //     25 ................iiik...oo+...+ivd---doaa-bc--ilglf--aa---aabcghhkll...ssum+xaaacjbaabdjk......
(PID.TID 0000.0001) //     24 ..............xnheeft.kkk+...uii.aagdm----aa-----a-------bbbcdefjljjju.zummwwbbchba--abi......
(PID.TID 0000.0001) //     23 ..............xgheefp.iikw...uuw..fihi----fed-----eaaa--bbbbcdfflkjiiiq....zykccefa--abd......
(PID.TID 0000.0001) //     22 uss...........bbelffslffkk...zz.wqkeeqoheccdfa-----egabaabcdddegghliiiqq......xeeehheehccquss.
(PID.TID 0000.0001) //     21 bbeir........nbbcdjhqdddiiz.....wqfeelgghmedea-----bibbcddddddefghklnqoo........ieeflhgcccbbei
(PID.TID 0000.0001) //     20 bbder.......ldcccdgkccccidd......z.vkkktqqhegg----aaacddddddddefghkiiijl.........nhfa--gfcbbde
(PID.TID 0000.0001) //     19 cdaaf.......kddosggpaaaibbccx...+z+.....r+nlec---agaaabcddccddefikfgffff...........d---cjhcdaa
(PID.TID 0000.0001) //     18 d---d.......kglggvliaaaibbcaaeaiv++...qqzolhecccfdgkaabcdfccdeeikgfgffdd+..........d---djhd---
(PID.TID 0000.0001) //     17 c---c.......l.feewlfaaaoaa----aiv.....qqnllslmlofcdbaacceffffhhligfigeddj.........hd---ckhc---
(PID.TID 0000.0001) //     16 ba--c......tn.ddgnlfdaaqa-----lv.......vnllvllnwv--accivomfffhilhgfffeddjf........re--aeigba--
(PID.TID 0000.0001) //     15 b--dpz....+ll.ccdfhmdddlc----av.........otsxoomv---abccddfihgijkhgfffeejfff......+fd---ckfb--d
(PID.TID 0000.0001) //     14 c--mcl....weeqbaafilkfend--eagy.........hhstofft----aacdheefijkmjhhjijiffff.....zlfdaaadlfc--m
(PID.TID 0000.0001) //     13 cclbbg....nccobaaiddgkffqrqeaal.........eeutqfft------aaceeffhijlkjhhigfffq....+jgfodccflhcclb
(PID.TID 0000.0001) //     12 hgaaacw+iiicclemhdddfliigfdcaabfaaaz....ccsurqpc--------abcifffikiiihhggff.....kbbbdfffglhhgaa
(PID.TID 0000.0001) //     11 gcaaacbbifccennhbbdefnihgfdccaaaa----..dcccnt.ncab-------aabcdfilhggjiggff....l---abcefjlkgcaa
(PID.TID 0000.0001) //     10 fcaaccbdaacfrllfbbdegkmmljhfdddba----d.dcccfx.nyrebaba----abcdgilhfeegijgi..+w--aa-abcfilkfcaa
(PID.TID 0000.0001) //      9 ffcdcccaaaoqsolfdeehikihhlllgfedcccccdmdcccf.vyfaaaaaaaa--abdehmjhfeeefglv.++w-----abcdfklffcd
(PID.TID 0000.0001) //      8 iffjklcaafddffeeccvznkfffhhhlkjifgjkkfeeddfsyvcaaaaaaccdcccdfgjligedbbceg+.++xffn--cfddefliffj
(PID.TID 0000.0001) //      7 mqnnbbkkf--bmbaabbgtykfddeffeeddccdfhlffeelfbaaaaaacddeghgjgjlligeddaaabedfiiiiiisvkfkecchmqnn
(PID.TID 0000.0001) //      6 ca-------------aabcelttdddedddddccccdfkkiiffbaaaabcdgimmkmefecaaabbbaaabbdfiiiiispmmregifcca--
(PID.TID 0000.0001) //      5 -------a-------aaccehhhiddeddddddcccdfiikomodddefffmlmigedccaaaaaaaababbbdfiijsqgeccccbaa-----
(PID.TID 0000.0001) //      4 -ahebaabbbbbeihffgijiiiijpywnnpokkomkiiijmmmolkommmgffeeedccaaaaaabbcccefhmz..yjgeccccbaa--ahe
(PID.TID 0000.0001) //      3 ffhhrpjiiwyy............................yxotmjjjjgfeeeeeeddeffffheddeghjkyy..yqjgeddccdbbgffhh
(PID.TID 0000.0001) //      2 ............................................zyxxmgfeeefefgimnpwwwy..+zyy.....yyyyoiiihhz+.....
(PID.TID 0000.0001) //      1 ..............................................................................................
(PID.TID 0000.0001) //      0 qlloqz+.++++zzz++++++..................................................................+++qllo
(PID.TID 0000.0001) //     -1 slloorzzzzzzzzz+...++.....................................................yxxz........+zvusllo
(PID.TID 0000.0001) // =======================================================
(PID.TID 0000.0001) // END OF FIELD                                          =
(PID.TID 0000.0001) // =======================================================
(PID.TID 0000.0001) 
(PID.TID 0000.0001) // =======================================================
(PID.TID 0000.0001) // Field Model Ro_surf (ini_masks_etc) at iteration          1
(PID.TID 0000.0001) // CMIN =          1.000000000000000E+32
(PID.TID 0000.0001) // CMAX =         -1.000000000000000E+32
(PID.TID 0000.0001) // CINT =          0.000000000000000E+00
(PID.TID 0000.0001) // SYMBOLS (CMIN->CMAX): -abcdefghijklmnopqrstuvwxyz+
(PID.TID 0000.0001) //                  0.0: .
(PID.TID 0000.0001) // RANGE I (Lo:Hi:Step):(  -1:  92:   1)
(PID.TID 0000.0001) // RANGE J (Lo:Hi:Step):(  42:  -1:  -1)
(PID.TID 0000.0001) // RANGE K (Lo:Hi:Step):(   1:   1:   1)
(PID.TID 0000.0001) // =======================================================
(PID.TID 0000.0001) // =======================================================
(PID.TID 0000.0001) // END OF FIELD                                          =
(PID.TID 0000.0001) // =======================================================
(PID.TID 0000.0001) 
(PID.TID 0000.0001) // =======================================================
(PID.TID 0000.0001) // Field hFacC at iteration          1
(PID.TID 0000.0001) // CMIN =          1.000000000000000E+00
(PID.TID 0000.0001) // CMAX =          1.000000000000000E+00
(PID.TID 0000.0001) // CINT =          0.000000000000000E+00
(PID.TID 0000.0001) // SYMBOLS (CMIN->CMAX): -abcdefghijklmnopqrstuvwxyz+
(PID.TID 0000.0001) //                  0.0: .
(PID.TID 0000.0001) // RANGE I (Lo:Hi:Step):(  -1:  92:   1)
(PID.TID 0000.0001) // RANGE J (Lo:Hi:Step):(  42:  -1:  -1)
(PID.TID 0000.0001) // RANGE K (Lo:Hi:Step):(   1:   1:   1)
(PID.TID 0000.0001) // =======================================================
(PID.TID 0000.0001) // =======================================================
(PID.TID 0000.0001) // END OF FIELD                                          =
(PID.TID 0000.0001) // =======================================================
(PID.TID 0000.0001) 
(PID.TID 0000.0001) // =======================================================
(PID.TID 0000.0001) // Field hFacW at iteration          1
(PID.TID 0000.0001) // CMIN =          1.000000000000000E+00
(PID.TID 0000.0001) // CMAX =          1.000000000000000E+00
(PID.TID 0000.0001) // CINT =          0.000000000000000E+00
(PID.TID 0000.0001) // SYMBOLS (CMIN->CMAX): -abcdefghijklmnopqrstuvwxyz+
(PID.TID 0000.0001) //                  0.0: .
(PID.TID 0000.0001) // RANGE I (Lo:Hi:Step):(  -1:  92:   1)
(PID.TID 0000.0001) // RANGE J (Lo:Hi:Step):(  42:  -1:  -1)
(PID.TID 0000.0001) // RANGE K (Lo:Hi:Step):(   1:   1:   1)
(PID.TID 0000.0001) // =======================================================
(PID.TID 0000.0001) // =======================================================
(PID.TID 0000.0001) // END OF FIELD                                          =
(PID.TID 0000.0001) // =======================================================
(PID.TID 0000.0001) 
(PID.TID 0000.0001) // =======================================================
(PID.TID 0000.0001) // Field hFacS at iteration          1
(PID.TID 0000.0001) // CMIN =          1.000000000000000E+00
(PID.TID 0000.0001) // CMAX =          1.000000000000000E+00
(PID.TID 0000.0001) // CINT =          0.000000000000000E+00
(PID.TID 0000.0001) // SYMBOLS (CMIN->CMAX): -abcdefghijklmnopqrstuvwxyz+
(PID.TID 0000.0001) //                  0.0: .
(PID.TID 0000.0001) // RANGE I (Lo:Hi:Step):(  -1:  92:   1)
(PID.TID 0000.0001) // RANGE J (Lo:Hi:Step):(  42:  -1:  -1)
(PID.TID 0000.0001) // RANGE K (Lo:Hi:Step):(   1:   1:   1)
(PID.TID 0000.0001) // =======================================================
(PID.TID 0000.0001) // =======================================================
(PID.TID 0000.0001) // END OF FIELD                                          =
(PID.TID 0000.0001) // =======================================================
(PID.TID 0000.0001) 
(PID.TID 0000.0001) %MON surfExpanfCori_max           =   1.4265546244797E-04
(PID.TID 0000.0001) %MON surfExpanfCori_min           =  -1.4265546244797E-04
(PID.TID 0000.0001) %MON surfExpanfCori_mean          =  -1.2347858075529E-21
(PID.TID 0000.0001) %MON surfExpanfCori_sd            =   9.6599226301547E-05
(PID.TID 0000.0001) %MON surfExpanfCoriG_max          =   1.4151032568025E-04
(PID.TID 0000.0001) %MON surfExpanfCoriG_min          =  -1.4362679550910E-04
(PID.TID 0000.0001) %MON surfExpanfCoriG_mean         =  -3.5906698877274E-06
(PID.TID 0000.0001) %MON surfExpanfCoriG_sd           =   9.6548915696244E-05
(PID.TID 0000.0001) %MON surfExpanfCoriCos_max        =   1.4575362704741E-04
(PID.TID 0000.0001) %MON surfExpanfCoriCos_min        =   3.0322354601388E-05
(PID.TID 0000.0001) %MON surfExpanfCoriCos_mean       =   1.0288600773632E-04
(PID.TID 0000.0001) %MON surfExpanfCoriCos_sd         =   3.6784304327266E-05
(PID.TID 0000.0001) INI_CG2D: CG2D normalisation factor =  6.5682677425711703E-05
(PID.TID 0000.0001) 
(PID.TID 0000.0001)  MDS_READ_FIELD: opening global file: lev_t.bin
(PID.TID 0000.0001) // =======================================================
(PID.TID 0000.0001) // Field Initial Temperature at iteration          1
(PID.TID 0000.0001) // CMIN =         -1.900000000000000E+00
(PID.TID 0000.0001) // CMAX =          2.973338890075684E+01
(PID.TID 0000.0001) // CINT =          1.171606996324327E+00
(PID.TID 0000.0001) // SYMBOLS (CMIN->CMAX): -abcdefghijklmnopqrstuvwxyz+
(PID.TID 0000.0001) //                  0.0: .
(PID.TID 0000.0001) // RANGE I (Lo:Hi:Step):(   1:  90:   1)
(PID.TID 0000.0001) // RANGE J (Lo:Hi:Step):(  40:   1:  -1)
(PID.TID 0000.0001) // RANGE K (Lo:Hi:Step):(   1:   1:   1)
(PID.TID 0000.0001) // =======================================================
(PID.TID 0000.0001) K =   1
(PID.TID 0000.0001)                I=10      I=20      I=30      I=40      I=50      I=60      I=70      I=80      I=90
(PID.TID 0000.0001) |--J--|123456789|123456789|123456789|123456789|123456789|123456789|123456789|123456789|123456789|
(PID.TID 0000.0001)     40 bccdd.baa----abdedd..................................................................bbbbb
(PID.TID 0000.0001)     39 ccdddddccbbbaa...ed.....................................................----........bbbbbb
(PID.TID 0000.0001)     38 fffgfedeedddc...........................................................-----......cbbbcde
(PID.TID 0000.0001)     37 ghh..................................................................bc...bbc...edeed.defg
(PID.TID 0000.0001)     36 hh.........................................ddcb....................dcccbabccdd.eefghhihhih
(PID.TID 0000.0001)     35 hh.................................aaab..dddeddd...ffggg...........ccc....ddeeeffghijjjjih
(PID.TID 0000.0001)     34 ...................................babb.deeeeeee.ffffgghh..................ccdffghijkkkj..
(PID.TID 0000.0001)     33 ....................................accdddeeeeefffffgghhiii.................bcfijkkllllkk.
(PID.TID 0000.0001)     32 ....................................bdddeffgffgghhhhhiiijjj................dccglmnmmmmlll.
(PID.TID 0000.0001)     31 ....................................fghiiiijjjjjjkkkkklllkk..............ikkjjmooooonnmm..
(PID.TID 0000.0001)     30 ...................................mmmnmmmmmmmmmmmmmnnnnnmm............moqrrrqrqqqpppooo..
(PID.TID 0000.0001)     29 .................................pqqqqqpppppppppoppoppppponm...........ssssssrrrrrqqqqpp..
(PID.TID 0000.0001)     28 ...............................prssssrrrsssrrrrrrrrrrrrrqqpoo.........uttssstssrssrrrqqq..
(PID.TID 0000.0001)     27 ..............vv..............stuttuuuuutuuuuuuuuuuttttssrrqqq...stuu.vvvuuuuutttttsss....
(PID.TID 0000.0001)     26 ..............vvv...........uuvvvvvwwwwwwwwvvvvvvvvvuuutttsssttv.uuvxxwwwwwwvvvvuuttsr....
(PID.TID 0000.0001)     25 ..............wwwx...xxx...vvvxxxxxyyxxxxxxxxxwwwwwvvvvvuuuuuvwwx...xxxxxxwwwwwwvvutsr....
(PID.TID 0000.0001)     24 ............wwwwxyy.xxyy...wxx.yyyyyyyyyyyxxxxxxxxwwwwwwwvvwwxxyywww.xxxxxxxxxxwwwvvur....
(PID.TID 0000.0001)     23 ............xxxyyyz.xyyy...xxx..yyyyzzyyyyyyyyxxxxxxxxxwwwwwxxxwwwwwx....vwxxxxwwwwwvu....
(PID.TID 0000.0001)     22 w...........xxyyyzyyyyyz...xx.yyzzzzzzzzzzzzzyyzyyyyyyxxwwxxxxwvvvwwxw......yyyyxxxxxxwxxw
(PID.TID 0000.0001)     21 xxx........xxxxyyzzzzzzz+.....zyzzzzzzz++zzzzyyyyyyyyxxwvvwwwwvvvvvvvu........yyyyyyyyyxxx
(PID.TID 0000.0001)     20 xww.......xyyyyxyyzzzzzz+......z.zzzzz+++zzzzzzyyyyyxxxxwvwxwvuuuuuuut.........yyyyxxxxwww
(PID.TID 0000.0001)     19 vvv.......yyyyxwwxyzyyzzzzz...zzz.....++++++z++z+zzzyyyyxxxxwwvvvvvvvu...........yyxxxwwww
(PID.TID 0000.0001)     18 uut.......zzyyywwxyzyyyyzzyzzzzzz...z+z++++zz+++++++zzzyyyyxxwwwvvvvvtt..........yyxxwvvwv
(PID.TID 0000.0001)     17 uus.......z.yyyyyyxyzzyyyyyyyzz.....yzzzzzzzzzzzzzzzzzzyyyyxxwwvuuvvuut.........yyyxxwttvu
(PID.TID 0000.0001)     16 utr......yy.zyyyyxxxxxxxwxxxxy.......yyyyyyyyyyyyyyyyyyyyyyyxxwvvvuuutts........xyyyxwvuuu
(PID.TID 0000.0001)     15 ttrr....xxx.xxxwxwwwwvwwvvvww.........xwxxxxxxxxxxxxxxxxxyyyxwwwvvuttssrr......wxxxxxwwvuu
(PID.TID 0000.0001)     14 ttsq....xyxwwxwvwwwvutuuuuuuu.........wwvwwwwvwvvwwwvwvvwwwwwwvvvuuutssrr.....vwwwwwwwvvvu
(PID.TID 0000.0001)     13 tttr....wwwvvvtttuuuutttssttt.........vvvuuuuuuutttttuuuuuvwwwuuuttttssrr....uvvvvvvvvvvut
(PID.TID 0000.0001)     12 sssssstttutssssrrrrrstrqqrrssqqrrq....uuttssssrrrrrrrrrrrstttssssrssrrqp.....uuuttssttssss
(PID.TID 0000.0001)     11 poprsssrqqqqqrqppooopqpoppppppppppp..sssrrr.rqpppqqqqppppqqqoppqqqqrqqpp....prsrqqqqqppppq
(PID.TID 0000.0001)     10 lllmoooonmnnmnnnnmmmmmmlmmlllmnnnnon.qqqppp.ppppppooooooooonmnnnonnooooo..nmoponnmnnnnnmll
(PID.TID 0000.0001)      9 ihhiiiihhhhhhiiihiiiiihhhiiiijjkkmnllnnnnn.mmmmnnnnmmmmnnmmlklllllklllll.mllmmllkjiijjihhi
(PID.TID 0000.0001)      8 eeeeeeeedefgggffeeffggffffggghiiiijjijklklkkkkkkkklllkkkkjjiiijkjjjjjjkj.kkjjiihggffffedde
(PID.TID 0000.0001)      7 cccccddeedddefeddddddddddefeefffffgggghiiiiiijjjihhgggghhhhhghhhhhhhiiiihiihhgfeddddddcccc
(PID.TID 0000.0001)      6 abbcccddcccccdddddccdddddddccddddddeeeeffggggghhgeddddddeeeeeeefggggghggggffeedccbbbbbbbba
(PID.TID 0000.0001)      5 bbbcccccccccccccccccccccbbccccdddddddcccddeeddeedcbbbbbbccccccdddeeeeeddddddccbbbbaaaaaaab
(PID.TID 0000.0001)      4 bbbbbbbaaabbbbbbbbbbbbaabbabbbbcbbbbbbbbbbbbbbbbbbbabbaaabbbbbbbbbbbbbbbbb..a--aaabbbaaabb
(PID.TID 0000.0001)      3 bbbbaaa-a-............................bbaaaaaaaaaaaaaaaaaaaaaaaaaaaaaaaab..aaaaaaaabbbaaaa
(PID.TID 0000.0001)      2 ..........................................baaaaaaaaaaaa-------aa..aaaa.....aaaaaaaaaaaa...
(PID.TID 0000.0001)      1 ..........................................................................................
(PID.TID 0000.0001) // =======================================================
(PID.TID 0000.0001) // END OF FIELD                                          =
(PID.TID 0000.0001) // =======================================================
(PID.TID 0000.0001) 
(PID.TID 0000.0001)  MDS_READ_FIELD: opening global file: lev_s.bin
(PID.TID 0000.0001) // =======================================================
(PID.TID 0000.0001) // Field Initial Salinity at iteration          1
(PID.TID 0000.0001) // CMIN =          2.975276947021484E+01
(PID.TID 0000.0001) // CMAX =          3.747562789916992E+01
(PID.TID 0000.0001) // CINT =          2.860317936650029E-01
(PID.TID 0000.0001) // SYMBOLS (CMIN->CMAX): -abcdefghijklmnopqrstuvwxyz+
(PID.TID 0000.0001) //                  0.0: .
(PID.TID 0000.0001) // RANGE I (Lo:Hi:Step):(   1:  90:   1)
(PID.TID 0000.0001) // RANGE J (Lo:Hi:Step):(  40:   1:  -1)
(PID.TID 0000.0001) // RANGE K (Lo:Hi:Step):(   1:   1:   1)
(PID.TID 0000.0001) // =======================================================
(PID.TID 0000.0001) K =   1
(PID.TID 0000.0001)                I=10      I=20      I=30      I=40      I=50      I=60      I=70      I=80      I=90
(PID.TID 0000.0001) |--J--|123456789|123456789|123456789|123456789|123456789|123456789|123456789|123456789|123456789|
(PID.TID 0000.0001)     40 qrrrr.oonnooopqtutt..................................................................mnnop
(PID.TID 0000.0001)     39 rssrrrrrrrqqpn...ut.....................................................mmmm........opqqqr
(PID.TID 0000.0001)     38 ssrrqqqqrrqpo...........................................................lkkll......onoqrrs
(PID.TID 0000.0001)     37 ssr..................................................................hg...lln...qppqr.rrrs
(PID.TID 0000.0001)     36 rr.........................................lkji....................feeegikmoop.pqrssssssss
(PID.TID 0000.0001)     35 rr.................................kkkk..lllllki...jijjj...........aa-....opqrrrrrrrssttss
(PID.TID 0000.0001)     34 ...................................jlll.kklllllk.ijkkkjih..................hlpqrqrrsstts..
(PID.TID 0000.0001)     33 ....................................iklkkkkkkkkkjkkjjjjjjii.................jmprrsstttttt.
(PID.TID 0000.0001)     32 ....................................iklllkllllllllkkkkkkkji................gilpstuuttuuut.
(PID.TID 0000.0001)     31 ....................................lmnonnnnoooonnmmmmllkjj..............loopqtvvvuuuuuu..
(PID.TID 0000.0001)     30 ...................................pppppppqqqqpppoooonnmlkk............ptvxwwvvwvvvvvvvu..
(PID.TID 0000.0001)     29 .................................pqqrqqqqqqrrrqqppqqqpponmll...........vxxxxxxwwwwwxwwxw..
(PID.TID 0000.0001)     28 ...............................prrrrrqqrrrrrsrrsrssssssrqonmm.........wxxxxxxxyyyyyyyyxx..
(PID.TID 0000.0001)     27 ..............xx..............prrrrrrrrrssssssstttssssssrqpoop...uwww.wwxxxyyy++zzzzyy....
(PID.TID 0000.0001)     26 ..............wxx...........ppqrrrrrrsssrrstsstttssrrrrrrrqppqqp.wwwvvwwwwwxyy+++zzyxw....
(PID.TID 0000.0001)     25 ..............wxxv...kkk...ooopqrrrrrssrrrrrrrssssqqpppppppppppoo...vvutuuvvwxyyyxxvvu....
(PID.TID 0000.0001)     24 ............uvvwwur.lmlk...nmm.pqqqqrrrrrqqqqrrqqrpppppooooonmmmnooo.uuuuuuttuvvvuvuut....
(PID.TID 0000.0001)     23 ............vvuvtqp.lmml...mln..ppppqpqppppppqpppppppppqppponnnnnoopm....xvuuuvvvvuuut....
(PID.TID 0000.0001)     22 r...........vuttsqqpnppn...mm.oppqqrrqqqqqqppppqqrrrqqqrrppppoopooomjj......uuvvvvvuttssrr
(PID.TID 0000.0001)     21 qmm........ttsssssssrsqon.....opqqqqqqqrrrrqqqssssssrrrrrrrrpqqqppomll........tvvvvuttssrr
(PID.TID 0000.0001)     20 sqq.......sttssrrsrrrrpol......p.qrqpqrrrrrrrstttttsssrrsssrqrrrrqqqpo.........wwwvvvuuutt
(PID.TID 0000.0001)     19 tsr.......ssssrrrrpppppnmmm...oqq.....qrqqsrrstttuuuttssttssrrssrrrrqq...........wwwvuvvvv
(PID.TID 0000.0001)     18 wut.......ssrrrrrqppppppppoooorrr...poqqqprrrttttuuutuuuuuutttttttutsss..........yyxwwxwxx
(PID.TID 0000.0001)     17 wwu.......s.rrrrrrqppppqqqqqqqr.....rrsrqrsssuusrtuuuvvvwwvvvuuuuutttss.........xyzyyyyxxx
(PID.TID 0000.0001)     16 vvt......ss.qrrssrqrqpqrrrrrrr.......ssrrstsstusrsuuuvwwwwxxwwvvvuttttsr........yz+zzzxwww
(PID.TID 0000.0001)     15 utss....stt.rrssstttsrrsrstsr.........ssstttssttsuuttuvvvvwxwwwwwuttsssrr......xyyyyxyyxwv
(PID.TID 0000.0001)     14 utts....sstrrssstuuuuuuuuuutt.........stttuutttttttuttttttuvvvvvvutsrqrrr.....vxxwwwwxwvwv
(PID.TID 0000.0001)     13 uuut....ttttttttuuuuuvtuuuuuu.........ttttuutttttttuutsssstttttstsqrqqppp....uwwwvuvvvutvv
(PID.TID 0000.0001)     12 ttttttttttttttttttttttssuuuuutuuut....tttttttttttsssssrrrrrrrqqqqqppppoo.....rvvuuttttttuu
(PID.TID 0000.0001)     11 rqsttttttttuuttttsssssrrstttttttsss..ttttts.tsssrrrrqqqqqppppoonnooooooo....oruttttsssrqrs
(PID.TID 0000.0001)     10 pppqrssrqqrqpqrssrrqqqqqqrrrrrrrrrrs.sssssr.rssrrqqpppppppooooonnnoooonn..moqrrrqqqqqqqqqq
(PID.TID 0000.0001)      9 oonooooooooonnnooooooooooppppppqqqqqrrrqrq.pppqqqqqppppppppppoooooooooll.lmoqqqqppooooopoo
(PID.TID 0000.0001)      8 nnnoonooooooonnnnnnnoooonoonoooppopqqqqqqqppopppqqqpppppppppppppppooopon.lnopppoooonnnnooo
(PID.TID 0000.0001)      7 ooooooooooopponnnooooooonnnnnonnooooooooopppppppoooooooooopppppppppoopqnnmnoooonnnonnnnnno
(PID.TID 0000.0001)      6 oooonnoonnnnooooooooooooonnnnnnnnnnnnnnnnoooopppooooooooooooooppppppppppoooooooonnnnnmnnnn
(PID.TID 0000.0001)      5 oooonnnnnnnnnnnnnnnnnoooooonnnnnnonnnnnnnnnoooooooooooonnnnnnooooooopoooonoooonnnnnnnooooo
(PID.TID 0000.0001)      4 oooonnnooonnnnnnnnnnnnnnoooooonnnooooonnnooooooooppponnnnmmmnnnnmnnoonnnnn..nnnooooooooooo
(PID.TID 0000.0001)      3 ooonnnnnnn............................nnoooooonnooooonnnnnnnoonnnnnnnnmmm..ooopooooooooooo
(PID.TID 0000.0001)      2 ..........................................pppooooonnnnnnoooppppo..nnnn.....qqqpppoooooo...
(PID.TID 0000.0001)      1 ..........................................................................................
(PID.TID 0000.0001) // =======================================================
(PID.TID 0000.0001) // END OF FIELD                                          =
(PID.TID 0000.0001) // =======================================================
(PID.TID 0000.0001) 
(PID.TID 0000.0001) Start initial hydrostatic pressure computation
(PID.TID 0000.0001) Pressure is predetermined for buoyancyRelation OCEANIC
(PID.TID 0000.0001) 
(PID.TID 0000.0001)  MDS_READ_FIELD: opening global file: trenberth_taux.bin
(PID.TID 0000.0001)  MDS_READ_FIELD: opening global file: trenberth_tauy.bin
(PID.TID 0000.0001)  MDS_READ_FIELD: opening global file: ncep_qnet.bin
(PID.TID 0000.0001)  MDS_READ_FIELD: opening global file: lev_sst.bin
(PID.TID 0000.0001)  MDS_READ_FIELD: opening global file: lev_sss.bin
(PID.TID 0000.0001) // =======================================================
(PID.TID 0000.0001) // Model current state
(PID.TID 0000.0001) // =======================================================
(PID.TID 0000.0001) 
S/R EXTERNAL_FIELDS_LOAD: Reading new data:   12    1         0  0.000000000000E+00
(PID.TID 0000.0001)  MDS_READ_FIELD: opening global file: trenberth_taux.bin
(PID.TID 0000.0001)  MDS_READ_FIELD: opening global file: trenberth_taux.bin
(PID.TID 0000.0001)  MDS_READ_FIELD: opening global file: trenberth_tauy.bin
(PID.TID 0000.0001)  MDS_READ_FIELD: opening global file: trenberth_tauy.bin
(PID.TID 0000.0001)  MDS_READ_FIELD: opening global file: ncep_qnet.bin
(PID.TID 0000.0001)  MDS_READ_FIELD: opening global file: ncep_qnet.bin
(PID.TID 0000.0001)  MDS_READ_FIELD: opening global file: lev_sst.bin
(PID.TID 0000.0001)  MDS_READ_FIELD: opening global file: lev_sst.bin
(PID.TID 0000.0001)  MDS_READ_FIELD: opening global file: lev_sss.bin
(PID.TID 0000.0001)  MDS_READ_FIELD: opening global file: lev_sss.bin
time,SST,SSS,fu,fv,Q,E-P,i0,i1,a,b =   0.0000E+00  5.3151E-02  3.4364E+01 -4.0500E-02 -6.3753E-02  2.6510E+02  0.0000E+00    12     1  5.0000E-01  5.0000E-01
time,fu0,fu1,fu =   0.0000E+00 -4.5368E-02 -3.5633E-02 -4.0500E-02  5.000000000000000E-01  5.000000000000000E-01
(PID.TID 0000.0001)  MDS_READ_FIELD: opening file: xx_hfluxm.0000000000.001.001.data
 cg2d: Sum(rhs),rhsMax =   1.47867829092263E-14  2.54952604282385E+00
time,SST,SSS,fu,fv,Q,E-P,i0,i1,a,b =   8.6400E+04  1.1350E-01  3.4387E+01 -4.0176E-02 -6.3320E-02  2.6514E+02  0.0000E+00    12     1  5.3333E-01  4.6667E-01
time,fu0,fu1,fu =   8.6400E+04 -4.5368E-02 -3.5633E-02 -4.0176E-02  5.333333333333333E-01  4.666666666666667E-01
 cg2d: Sum(rhs),rhsMax =   1.11299858218672E-14  2.62443215722193E+00
time,SST,SSS,fu,fv,Q,E-P,i0,i1,a,b =   1.7280E+05  1.7385E-01  3.4410E+01 -3.9851E-02 -6.2886E-02  2.6519E+02  0.0000E+00    12     1  5.6667E-01  4.3333E-01
time,fu0,fu1,fu =   1.7280E+05 -4.5368E-02 -3.5633E-02 -3.9851E-02  5.666666666666667E-01  4.333333333333333E-01
 cg2d: Sum(rhs),rhsMax =  -4.06480404890885E-14  2.39923446840278E+00
time,SST,SSS,fu,fv,Q,E-P,i0,i1,a,b =   2.5920E+05  2.3421E-01  3.4434E+01 -3.9527E-02 -6.2453E-02  2.6523E+02  0.0000E+00    12     1  6.0000E-01  4.0000E-01
time,fu0,fu1,fu =   2.5920E+05 -4.5368E-02 -3.5633E-02 -3.9527E-02  6.000000000000000E-01  4.000000000000000E-01
 cg2d: Sum(rhs),rhsMax =  -1.38500322321988E-14  2.21574359151329E+00
time,SST,SSS,fu,fv,Q,E-P,i0,i1,a,b =   3.4560E+05  2.9456E-01  3.4457E+01 -3.9202E-02 -6.2020E-02  2.6528E+02  0.0000E+00    12     1  6.3333E-01  3.6667E-01
time,fu0,fu1,fu =   3.4560E+05 -4.5368E-02 -3.5633E-02 -3.9202E-02  6.333333333333333E-01  3.666666666666667E-01
 cg2d: Sum(rhs),rhsMax =   3.63459262686661E-14  2.00995911954326E+00
time,SST,SSS,fu,fv,Q,E-P,i0,i1,a,b =   4.3200E+05  3.5491E-01  3.4481E+01 -3.8878E-02 -6.1587E-02  2.6532E+02  0.0000E+00    12     1  6.6667E-01  3.3333E-01
time,fu0,fu1,fu =   4.3200E+05 -4.5368E-02 -3.5633E-02 -3.8878E-02  6.666666666666666E-01  3.333333333333334E-01
 cg2d: Sum(rhs),rhsMax =  -4.51999548900517E-14  1.78612610533026E+00
time,SST,SSS,fu,fv,Q,E-P,i0,i1,a,b =   5.1840E+05  4.1526E-01  3.4504E+01 -3.8553E-02 -6.1154E-02  2.6537E+02  0.0000E+00    12     1  7.0000E-01  3.0000E-01
time,fu0,fu1,fu =   5.1840E+05 -4.5368E-02 -3.5633E-02 -3.8553E-02  7.000000000000000E-01  3.000000000000000E-01
 cg2d: Sum(rhs),rhsMax =  -2.44804176929847E-14  1.55419822260071E+00
time,SST,SSS,fu,fv,Q,E-P,i0,i1,a,b =   6.0480E+05  4.7561E-01  3.4527E+01 -3.8229E-02 -6.0721E-02  2.6541E+02  0.0000E+00    12     1  7.3333E-01  2.6667E-01
time,fu0,fu1,fu =   6.0480E+05 -4.5368E-02 -3.5633E-02 -3.8229E-02  7.333333333333333E-01  2.666666666666667E-01
 cg2d: Sum(rhs),rhsMax =  -5.29160049111965E-14  1.32823755952736E+00
time,SST,SSS,fu,fv,Q,E-P,i0,i1,a,b =   6.9120E+05  5.3596E-01  3.4551E+01 -3.7904E-02 -6.0288E-02  2.6546E+02  0.0000E+00    12     1  7.6667E-01  2.3333E-01
time,fu0,fu1,fu =   6.9120E+05 -4.5368E-02 -3.5633E-02 -3.7904E-02  7.666666666666667E-01  2.333333333333333E-01
 cg2d: Sum(rhs),rhsMax =  -2.97400992721464E-14  1.15613808765430E+00
time,SST,SSS,fu,fv,Q,E-P,i0,i1,a,b =   7.7760E+05  5.9632E-01  3.4574E+01 -3.7580E-02 -5.9855E-02  2.6550E+02  0.0000E+00    12     1  8.0000E-01  2.0000E-01
time,fu0,fu1,fu =   7.7760E+05 -4.5368E-02 -3.5633E-02 -3.7580E-02  8.000000000000000E-01  2.000000000000000E-01
 cg2d: Sum(rhs),rhsMax =   4.08700850940136E-14  1.08384893708049E+00
(PID.TID 0000.0001) %CHECKPOINT        10 ckptB
S/R EXTERNAL_FIELDS_LOAD: Reading new data:   12    1         0  0.000000000000E+00
(PID.TID 0000.0001)  MDS_READ_FIELD: opening global file: trenberth_taux.bin
(PID.TID 0000.0001)  MDS_READ_FIELD: opening global file: trenberth_taux.bin
(PID.TID 0000.0001)  MDS_READ_FIELD: opening global file: trenberth_tauy.bin
(PID.TID 0000.0001)  MDS_READ_FIELD: opening global file: trenberth_tauy.bin
(PID.TID 0000.0001)  MDS_READ_FIELD: opening global file: ncep_qnet.bin
(PID.TID 0000.0001)  MDS_READ_FIELD: opening global file: ncep_qnet.bin
(PID.TID 0000.0001)  MDS_READ_FIELD: opening global file: lev_sst.bin
(PID.TID 0000.0001)  MDS_READ_FIELD: opening global file: lev_sst.bin
(PID.TID 0000.0001)  MDS_READ_FIELD: opening global file: lev_sss.bin
(PID.TID 0000.0001)  MDS_READ_FIELD: opening global file: lev_sss.bin
time,SST,SSS,fu,fv,Q,E-P,i0,i1,a,b =   0.0000E+00  5.3151E-02  3.4364E+01 -4.0500E-02 -6.3753E-02  2.6510E+02  0.0000E+00    12     1  5.0000E-01  5.0000E-01
time,fu0,fu1,fu =   0.0000E+00 -4.5368E-02 -3.5633E-02 -4.0500E-02  5.000000000000000E-01  5.000000000000000E-01
(PID.TID 0000.0001)  MDS_READ_FIELD: opening file: xx_hfluxm.0000000000.001.001.data
 cg2d: Sum(rhs),rhsMax =   1.47867829092263E-14  2.54952604282385E+00
time,SST,SSS,fu,fv,Q,E-P,i0,i1,a,b =   8.6400E+04  1.1350E-01  3.4387E+01 -4.0176E-02 -6.3320E-02  2.6514E+02  0.0000E+00    12     1  5.3333E-01  4.6667E-01
time,fu0,fu1,fu =   8.6400E+04 -4.5368E-02 -3.5633E-02 -4.0176E-02  5.333333333333333E-01  4.666666666666667E-01
 cg2d: Sum(rhs),rhsMax =   1.11299858218672E-14  2.62443215722193E+00
time,SST,SSS,fu,fv,Q,E-P,i0,i1,a,b =   1.7280E+05  1.7385E-01  3.4410E+01 -3.9851E-02 -6.2886E-02  2.6519E+02  0.0000E+00    12     1  5.6667E-01  4.3333E-01
time,fu0,fu1,fu =   1.7280E+05 -4.5368E-02 -3.5633E-02 -3.9851E-02  5.666666666666667E-01  4.333333333333333E-01
 cg2d: Sum(rhs),rhsMax =  -4.06480404890885E-14  2.39923446840278E+00
time,SST,SSS,fu,fv,Q,E-P,i0,i1,a,b =   2.5920E+05  2.3421E-01  3.4434E+01 -3.9527E-02 -6.2453E-02  2.6523E+02  0.0000E+00    12     1  6.0000E-01  4.0000E-01
time,fu0,fu1,fu =   2.5920E+05 -4.5368E-02 -3.5633E-02 -3.9527E-02  6.000000000000000E-01  4.000000000000000E-01
 cg2d: Sum(rhs),rhsMax =  -1.38500322321988E-14  2.21574359151329E+00
time,SST,SSS,fu,fv,Q,E-P,i0,i1,a,b =   3.4560E+05  2.9456E-01  3.4457E+01 -3.9202E-02 -6.2020E-02  2.6528E+02  0.0000E+00    12     1  6.3333E-01  3.6667E-01
time,fu0,fu1,fu =   3.4560E+05 -4.5368E-02 -3.5633E-02 -3.9202E-02  6.333333333333333E-01  3.666666666666667E-01
 cg2d: Sum(rhs),rhsMax =   3.63459262686661E-14  2.00995911954326E+00
time,SST,SSS,fu,fv,Q,E-P,i0,i1,a,b =   4.3200E+05  3.5491E-01  3.4481E+01 -3.8878E-02 -6.1587E-02  2.6532E+02  0.0000E+00    12     1  6.6667E-01  3.3333E-01
time,fu0,fu1,fu =   4.3200E+05 -4.5368E-02 -3.5633E-02 -3.8878E-02  6.666666666666666E-01  3.333333333333334E-01
 cg2d: Sum(rhs),rhsMax =  -4.51999548900517E-14  1.78612610533026E+00
time,SST,SSS,fu,fv,Q,E-P,i0,i1,a,b =   5.1840E+05  4.1526E-01  3.4504E+01 -3.8553E-02 -6.1154E-02  2.6537E+02  0.0000E+00    12     1  7.0000E-01  3.0000E-01
time,fu0,fu1,fu =   5.1840E+05 -4.5368E-02 -3.5633E-02 -3.8553E-02  7.000000000000000E-01  3.000000000000000E-01
 cg2d: Sum(rhs),rhsMax =  -2.44804176929847E-14  1.55419822260071E+00
time,SST,SSS,fu,fv,Q,E-P,i0,i1,a,b =   6.0480E+05  4.7561E-01  3.4527E+01 -3.8229E-02 -6.0721E-02  2.6541E+02  0.0000E+00    12     1  7.3333E-01  2.6667E-01
time,fu0,fu1,fu =   6.0480E+05 -4.5368E-02 -3.5633E-02 -3.8229E-02  7.333333333333333E-01  2.666666666666667E-01
 cg2d: Sum(rhs),rhsMax =  -5.29160049111965E-14  1.32823755952736E+00
time,SST,SSS,fu,fv,Q,E-P,i0,i1,a,b =   6.9120E+05  5.3596E-01  3.4551E+01 -3.7904E-02 -6.0288E-02  2.6546E+02  0.0000E+00    12     1  7.6667E-01  2.3333E-01
time,fu0,fu1,fu =   6.9120E+05 -4.5368E-02 -3.5633E-02 -3.7904E-02  7.666666666666667E-01  2.333333333333333E-01
 cg2d: Sum(rhs),rhsMax =  -2.97400992721464E-14  1.15613808765430E+00
time,SST,SSS,fu,fv,Q,E-P,i0,i1,a,b =   7.7760E+05  5.9632E-01  3.4574E+01 -3.7580E-02 -5.9855E-02  2.6550E+02  0.0000E+00    12     1  8.0000E-01  2.0000E-01
time,fu0,fu1,fu =   7.7760E+05 -4.5368E-02 -3.5633E-02 -3.7580E-02  8.000000000000000E-01  2.000000000000000E-01
 cg2d: Sum(rhs),rhsMax =   4.08700850940136E-14  1.08384893708049E+00
(PID.TID 0000.0001) %CHECKPOINT        10 ckptA
S/R EXTERNAL_FIELDS_LOAD: Reading new data:   12    1         0  0.000000000000E+00
(PID.TID 0000.0001)  MDS_READ_FIELD: opening global file: trenberth_taux.bin
(PID.TID 0000.0001)  MDS_READ_FIELD: opening global file: trenberth_taux.bin
(PID.TID 0000.0001)  MDS_READ_FIELD: opening global file: trenberth_tauy.bin
(PID.TID 0000.0001)  MDS_READ_FIELD: opening global file: trenberth_tauy.bin
(PID.TID 0000.0001)  MDS_READ_FIELD: opening global file: ncep_qnet.bin
(PID.TID 0000.0001)  MDS_READ_FIELD: opening global file: ncep_qnet.bin
(PID.TID 0000.0001)  MDS_READ_FIELD: opening global file: lev_sst.bin
(PID.TID 0000.0001)  MDS_READ_FIELD: opening global file: lev_sst.bin
(PID.TID 0000.0001)  MDS_READ_FIELD: opening global file: lev_sss.bin
(PID.TID 0000.0001)  MDS_READ_FIELD: opening global file: lev_sss.bin
time,SST,SSS,fu,fv,Q,E-P,i0,i1,a,b =   0.0000E+00  5.3151E-02  3.4364E+01 -4.0500E-02 -6.3753E-02  2.6510E+02  0.0000E+00    12     1  5.0000E-01  5.0000E-01
time,fu0,fu1,fu =   0.0000E+00 -4.5368E-02 -3.5633E-02 -4.0500E-02  5.000000000000000E-01  5.000000000000000E-01
(PID.TID 0000.0001)  MDS_READ_FIELD: opening file: xx_hfluxm.0000000000.001.001.data
 cg2d: Sum(rhs),rhsMax =   1.47867829092263E-14  2.54952604282385E+00
time,SST,SSS,fu,fv,Q,E-P,i0,i1,a,b =   8.6400E+04  1.1350E-01  3.4387E+01 -4.0176E-02 -6.3320E-02  2.6514E+02  0.0000E+00    12     1  5.3333E-01  4.6667E-01
time,fu0,fu1,fu =   8.6400E+04 -4.5368E-02 -3.5633E-02 -4.0176E-02  5.333333333333333E-01  4.666666666666667E-01
 cg2d: Sum(rhs),rhsMax =   1.11299858218672E-14  2.62443215722193E+00
time,SST,SSS,fu,fv,Q,E-P,i0,i1,a,b =   1.7280E+05  1.7385E-01  3.4410E+01 -3.9851E-02 -6.2886E-02  2.6519E+02  0.0000E+00    12     1  5.6667E-01  4.3333E-01
time,fu0,fu1,fu =   1.7280E+05 -4.5368E-02 -3.5633E-02 -3.9851E-02  5.666666666666667E-01  4.333333333333333E-01
 cg2d: Sum(rhs),rhsMax =  -4.06480404890885E-14  2.39923446840278E+00
time,SST,SSS,fu,fv,Q,E-P,i0,i1,a,b =   2.5920E+05  2.3421E-01  3.4434E+01 -3.9527E-02 -6.2453E-02  2.6523E+02  0.0000E+00    12     1  6.0000E-01  4.0000E-01
time,fu0,fu1,fu =   2.5920E+05 -4.5368E-02 -3.5633E-02 -3.9527E-02  6.000000000000000E-01  4.000000000000000E-01
 cg2d: Sum(rhs),rhsMax =  -1.38500322321988E-14  2.21574359151329E+00
time,SST,SSS,fu,fv,Q,E-P,i0,i1,a,b =   3.4560E+05  2.9456E-01  3.4457E+01 -3.9202E-02 -6.2020E-02  2.6528E+02  0.0000E+00    12     1  6.3333E-01  3.6667E-01
time,fu0,fu1,fu =   3.4560E+05 -4.5368E-02 -3.5633E-02 -3.9202E-02  6.333333333333333E-01  3.666666666666667E-01
 cg2d: Sum(rhs),rhsMax =   3.63459262686661E-14  2.00995911954326E+00
time,SST,SSS,fu,fv,Q,E-P,i0,i1,a,b =   4.3200E+05  3.5491E-01  3.4481E+01 -3.8878E-02 -6.1587E-02  2.6532E+02  0.0000E+00    12     1  6.6667E-01  3.3333E-01
time,fu0,fu1,fu =   4.3200E+05 -4.5368E-02 -3.5633E-02 -3.8878E-02  6.666666666666666E-01  3.333333333333334E-01
 cg2d: Sum(rhs),rhsMax =  -4.51999548900517E-14  1.78612610533026E+00
time,SST,SSS,fu,fv,Q,E-P,i0,i1,a,b =   5.1840E+05  4.1526E-01  3.4504E+01 -3.8553E-02 -6.1154E-02  2.6537E+02  0.0000E+00    12     1  7.0000E-01  3.0000E-01
time,fu0,fu1,fu =   5.1840E+05 -4.5368E-02 -3.5633E-02 -3.8553E-02  7.000000000000000E-01  3.000000000000000E-01
 cg2d: Sum(rhs),rhsMax =  -2.44804176929847E-14  1.55419822260071E+00
time,SST,SSS,fu,fv,Q,E-P,i0,i1,a,b =   6.0480E+05  4.7561E-01  3.4527E+01 -3.8229E-02 -6.0721E-02  2.6541E+02  0.0000E+00    12     1  7.3333E-01  2.6667E-01
time,fu0,fu1,fu =   6.0480E+05 -4.5368E-02 -3.5633E-02 -3.8229E-02  7.333333333333333E-01  2.666666666666667E-01
 cg2d: Sum(rhs),rhsMax =  -5.29160049111965E-14  1.32823755952736E+00
time,SST,SSS,fu,fv,Q,E-P,i0,i1,a,b =   6.9120E+05  5.3596E-01  3.4551E+01 -3.7904E-02 -6.0288E-02  2.6546E+02  0.0000E+00    12     1  7.6667E-01  2.3333E-01
time,fu0,fu1,fu =   6.9120E+05 -4.5368E-02 -3.5633E-02 -3.7904E-02  7.666666666666667E-01  2.333333333333333E-01
 cg2d: Sum(rhs),rhsMax =  -2.97400992721464E-14  1.15613808765430E+00
time,SST,SSS,fu,fv,Q,E-P,i0,i1,a,b =   7.7760E+05  5.9632E-01  3.4574E+01 -3.7580E-02 -5.9855E-02  2.6550E+02  0.0000E+00    12     1  8.0000E-01  2.0000E-01
time,fu0,fu1,fu =   7.7760E+05 -4.5368E-02 -3.5633E-02 -3.7580E-02  8.000000000000000E-01  2.000000000000000E-01
 cg2d: Sum(rhs),rhsMax =   4.08700850940136E-14  1.08384893708049E+00
(PID.TID 0000.0001) %CHECKPOINT        10 ckptB
S/R EXTERNAL_FIELDS_LOAD: Reading new data:   12    1         0  0.000000000000E+00
(PID.TID 0000.0001)  MDS_READ_FIELD: opening global file: trenberth_taux.bin
(PID.TID 0000.0001)  MDS_READ_FIELD: opening global file: trenberth_taux.bin
(PID.TID 0000.0001)  MDS_READ_FIELD: opening global file: trenberth_tauy.bin
(PID.TID 0000.0001)  MDS_READ_FIELD: opening global file: trenberth_tauy.bin
(PID.TID 0000.0001)  MDS_READ_FIELD: opening global file: ncep_qnet.bin
(PID.TID 0000.0001)  MDS_READ_FIELD: opening global file: ncep_qnet.bin
(PID.TID 0000.0001)  MDS_READ_FIELD: opening global file: lev_sst.bin
(PID.TID 0000.0001)  MDS_READ_FIELD: opening global file: lev_sst.bin
(PID.TID 0000.0001)  MDS_READ_FIELD: opening global file: lev_sss.bin
(PID.TID 0000.0001)  MDS_READ_FIELD: opening global file: lev_sss.bin
time,SST,SSS,fu,fv,Q,E-P,i0,i1,a,b =   0.0000E+00  5.3151E-02  3.4364E+01 -4.0500E-02 -6.3753E-02  2.6510E+02  0.0000E+00    12     1  5.0000E-01  5.0000E-01
time,fu0,fu1,fu =   0.0000E+00 -4.5368E-02 -3.5633E-02 -4.0500E-02  5.000000000000000E-01  5.000000000000000E-01
(PID.TID 0000.0001)  MDS_READ_FIELD: opening file: xx_hfluxm.0000000000.001.001.data
 cg2d: Sum(rhs),rhsMax =   1.47867829092263E-14  2.54952604282385E+00
time,SST,SSS,fu,fv,Q,E-P,i0,i1,a,b =   8.6400E+04  1.1350E-01  3.4387E+01 -4.0176E-02 -6.3320E-02  2.6514E+02  0.0000E+00    12     1  5.3333E-01  4.6667E-01
time,fu0,fu1,fu =   8.6400E+04 -4.5368E-02 -3.5633E-02 -4.0176E-02  5.333333333333333E-01  4.666666666666667E-01
 cg2d: Sum(rhs),rhsMax =   1.11299858218672E-14  2.62443215722193E+00
time,SST,SSS,fu,fv,Q,E-P,i0,i1,a,b =   1.7280E+05  1.7385E-01  3.4410E+01 -3.9851E-02 -6.2886E-02  2.6519E+02  0.0000E+00    12     1  5.6667E-01  4.3333E-01
time,fu0,fu1,fu =   1.7280E+05 -4.5368E-02 -3.5633E-02 -3.9851E-02  5.666666666666667E-01  4.333333333333333E-01
 cg2d: Sum(rhs),rhsMax =  -4.06480404890885E-14  2.39923446840278E+00
time,SST,SSS,fu,fv,Q,E-P,i0,i1,a,b =   2.5920E+05  2.3421E-01  3.4434E+01 -3.9527E-02 -6.2453E-02  2.6523E+02  0.0000E+00    12     1  6.0000E-01  4.0000E-01
time,fu0,fu1,fu =   2.5920E+05 -4.5368E-02 -3.5633E-02 -3.9527E-02  6.000000000000000E-01  4.000000000000000E-01
 cg2d: Sum(rhs),rhsMax =  -1.38500322321988E-14  2.21574359151329E+00
time,SST,SSS,fu,fv,Q,E-P,i0,i1,a,b =   3.4560E+05  2.9456E-01  3.4457E+01 -3.9202E-02 -6.2020E-02  2.6528E+02  0.0000E+00    12     1  6.3333E-01  3.6667E-01
time,fu0,fu1,fu =   3.4560E+05 -4.5368E-02 -3.5633E-02 -3.9202E-02  6.333333333333333E-01  3.666666666666667E-01
 cg2d: Sum(rhs),rhsMax =   3.63459262686661E-14  2.00995911954326E+00
time,SST,SSS,fu,fv,Q,E-P,i0,i1,a,b =   4.3200E+05  3.5491E-01  3.4481E+01 -3.8878E-02 -6.1587E-02  2.6532E+02  0.0000E+00    12     1  6.6667E-01  3.3333E-01
time,fu0,fu1,fu =   4.3200E+05 -4.5368E-02 -3.5633E-02 -3.8878E-02  6.666666666666666E-01  3.333333333333334E-01
 cg2d: Sum(rhs),rhsMax =  -4.51999548900517E-14  1.78612610533026E+00
time,SST,SSS,fu,fv,Q,E-P,i0,i1,a,b =   5.1840E+05  4.1526E-01  3.4504E+01 -3.8553E-02 -6.1154E-02  2.6537E+02  0.0000E+00    12     1  7.0000E-01  3.0000E-01
time,fu0,fu1,fu =   5.1840E+05 -4.5368E-02 -3.5633E-02 -3.8553E-02  7.000000000000000E-01  3.000000000000000E-01
 cg2d: Sum(rhs),rhsMax =  -2.44804176929847E-14  1.55419822260071E+00
time,SST,SSS,fu,fv,Q,E-P,i0,i1,a,b =   6.0480E+05  4.7561E-01  3.4527E+01 -3.8229E-02 -6.0721E-02  2.6541E+02  0.0000E+00    12     1  7.3333E-01  2.6667E-01
time,fu0,fu1,fu =   6.0480E+05 -4.5368E-02 -3.5633E-02 -3.8229E-02  7.333333333333333E-01  2.666666666666667E-01
 cg2d: Sum(rhs),rhsMax =  -5.29160049111965E-14  1.32823755952736E+00
time,SST,SSS,fu,fv,Q,E-P,i0,i1,a,b =   6.9120E+05  5.3596E-01  3.4551E+01 -3.7904E-02 -6.0288E-02  2.6546E+02  0.0000E+00    12     1  7.6667E-01  2.3333E-01
time,fu0,fu1,fu =   6.9120E+05 -4.5368E-02 -3.5633E-02 -3.7904E-02  7.666666666666667E-01  2.333333333333333E-01
 cg2d: Sum(rhs),rhsMax =  -2.97400992721464E-14  1.15613808765430E+00
time,SST,SSS,fu,fv,Q,E-P,i0,i1,a,b =   7.7760E+05  5.9632E-01  3.4574E+01 -3.7580E-02 -5.9855E-02  2.6550E+02  0.0000E+00    12     1  8.0000E-01  2.0000E-01
time,fu0,fu1,fu =   7.7760E+05 -4.5368E-02 -3.5633E-02 -3.7580E-02  8.000000000000000E-01  2.000000000000000E-01
 cg2d: Sum(rhs),rhsMax =   4.08700850940136E-14  1.08384893708049E+00
(PID.TID 0000.0001) %CHECKPOINT        10 ckptA
S/R EXTERNAL_FIELDS_LOAD: Reading new data:   12    1         0  0.000000000000E+00
(PID.TID 0000.0001)  MDS_READ_FIELD: opening global file: trenberth_taux.bin
(PID.TID 0000.0001)  MDS_READ_FIELD: opening global file: trenberth_taux.bin
(PID.TID 0000.0001)  MDS_READ_FIELD: opening global file: trenberth_tauy.bin
(PID.TID 0000.0001)  MDS_READ_FIELD: opening global file: trenberth_tauy.bin
(PID.TID 0000.0001)  MDS_READ_FIELD: opening global file: ncep_qnet.bin
(PID.TID 0000.0001)  MDS_READ_FIELD: opening global file: ncep_qnet.bin
(PID.TID 0000.0001)  MDS_READ_FIELD: opening global file: lev_sst.bin
(PID.TID 0000.0001)  MDS_READ_FIELD: opening global file: lev_sst.bin
(PID.TID 0000.0001)  MDS_READ_FIELD: opening global file: lev_sss.bin
(PID.TID 0000.0001)  MDS_READ_FIELD: opening global file: lev_sss.bin
time,SST,SSS,fu,fv,Q,E-P,i0,i1,a,b =   0.0000E+00  5.3151E-02  3.4364E+01 -4.0500E-02 -6.3753E-02  2.6510E+02  0.0000E+00    12     1  5.0000E-01  5.0000E-01
time,fu0,fu1,fu =   0.0000E+00 -4.5368E-02 -3.5633E-02 -4.0500E-02  5.000000000000000E-01  5.000000000000000E-01
(PID.TID 0000.0001)  MDS_READ_FIELD: opening file: xx_hfluxm.0000000000.001.001.data
 cg2d: Sum(rhs),rhsMax =   1.47867829092263E-14  2.54952604282385E+00
time,SST,SSS,fu,fv,Q,E-P,i0,i1,a,b =   8.6400E+04  1.1350E-01  3.4387E+01 -4.0176E-02 -6.3320E-02  2.6514E+02  0.0000E+00    12     1  5.3333E-01  4.6667E-01
time,fu0,fu1,fu =   8.6400E+04 -4.5368E-02 -3.5633E-02 -4.0176E-02  5.333333333333333E-01  4.666666666666667E-01
 cg2d: Sum(rhs),rhsMax =   1.11299858218672E-14  2.62443215722193E+00
time,SST,SSS,fu,fv,Q,E-P,i0,i1,a,b =   1.7280E+05  1.7385E-01  3.4410E+01 -3.9851E-02 -6.2886E-02  2.6519E+02  0.0000E+00    12     1  5.6667E-01  4.3333E-01
time,fu0,fu1,fu =   1.7280E+05 -4.5368E-02 -3.5633E-02 -3.9851E-02  5.666666666666667E-01  4.333333333333333E-01
 cg2d: Sum(rhs),rhsMax =  -4.06480404890885E-14  2.39923446840278E+00
time,SST,SSS,fu,fv,Q,E-P,i0,i1,a,b =   2.5920E+05  2.3421E-01  3.4434E+01 -3.9527E-02 -6.2453E-02  2.6523E+02  0.0000E+00    12     1  6.0000E-01  4.0000E-01
time,fu0,fu1,fu =   2.5920E+05 -4.5368E-02 -3.5633E-02 -3.9527E-02  6.000000000000000E-01  4.000000000000000E-01
 cg2d: Sum(rhs),rhsMax =  -1.38500322321988E-14  2.21574359151329E+00
time,SST,SSS,fu,fv,Q,E-P,i0,i1,a,b =   3.4560E+05  2.9456E-01  3.4457E+01 -3.9202E-02 -6.2020E-02  2.6528E+02  0.0000E+00    12     1  6.3333E-01  3.6667E-01
time,fu0,fu1,fu =   3.4560E+05 -4.5368E-02 -3.5633E-02 -3.9202E-02  6.333333333333333E-01  3.666666666666667E-01
 cg2d: Sum(rhs),rhsMax =   3.63459262686661E-14  2.00995911954326E+00
time,SST,SSS,fu,fv,Q,E-P,i0,i1,a,b =   4.3200E+05  3.5491E-01  3.4481E+01 -3.8878E-02 -6.1587E-02  2.6532E+02  0.0000E+00    12     1  6.6667E-01  3.3333E-01
time,fu0,fu1,fu =   4.3200E+05 -4.5368E-02 -3.5633E-02 -3.8878E-02  6.666666666666666E-01  3.333333333333334E-01
 cg2d: Sum(rhs),rhsMax =  -4.51999548900517E-14  1.78612610533026E+00
time,SST,SSS,fu,fv,Q,E-P,i0,i1,a,b =   5.1840E+05  4.1526E-01  3.4504E+01 -3.8553E-02 -6.1154E-02  2.6537E+02  0.0000E+00    12     1  7.0000E-01  3.0000E-01
time,fu0,fu1,fu =   5.1840E+05 -4.5368E-02 -3.5633E-02 -3.8553E-02  7.000000000000000E-01  3.000000000000000E-01
 cg2d: Sum(rhs),rhsMax =  -2.44804176929847E-14  1.55419822260071E+00
time,SST,SSS,fu,fv,Q,E-P,i0,i1,a,b =   6.0480E+05  4.7561E-01  3.4527E+01 -3.8229E-02 -6.0721E-02  2.6541E+02  0.0000E+00    12     1  7.3333E-01  2.6667E-01
time,fu0,fu1,fu =   6.0480E+05 -4.5368E-02 -3.5633E-02 -3.8229E-02  7.333333333333333E-01  2.666666666666667E-01
 cg2d: Sum(rhs),rhsMax =  -5.29160049111965E-14  1.32823755952736E+00
time,SST,SSS,fu,fv,Q,E-P,i0,i1,a,b =   6.9120E+05  5.3596E-01  3.4551E+01 -3.7904E-02 -6.0288E-02  2.6546E+02  0.0000E+00    12     1  7.6667E-01  2.3333E-01
time,fu0,fu1,fu =   6.9120E+05 -4.5368E-02 -3.5633E-02 -3.7904E-02  7.666666666666667E-01  2.333333333333333E-01
 cg2d: Sum(rhs),rhsMax =  -2.97400992721464E-14  1.15613808765430E+00
time,SST,SSS,fu,fv,Q,E-P,i0,i1,a,b =   7.7760E+05  5.9632E-01  3.4574E+01 -3.7580E-02 -5.9855E-02  2.6550E+02  0.0000E+00    12     1  8.0000E-01  2.0000E-01
time,fu0,fu1,fu =   7.7760E+05 -4.5368E-02 -3.5633E-02 -3.7580E-02  8.000000000000000E-01  2.000000000000000E-01
 cg2d: Sum(rhs),rhsMax =   4.08700850940136E-14  1.08384893708049E+00
(PID.TID 0000.0001) %CHECKPOINT        10 ckptB
S/R EXTERNAL_FIELDS_LOAD: Reading new data:   12    1         0  0.000000000000E+00
(PID.TID 0000.0001)  MDS_READ_FIELD: opening global file: trenberth_taux.bin
(PID.TID 0000.0001)  MDS_READ_FIELD: opening global file: trenberth_taux.bin
(PID.TID 0000.0001)  MDS_READ_FIELD: opening global file: trenberth_tauy.bin
(PID.TID 0000.0001)  MDS_READ_FIELD: opening global file: trenberth_tauy.bin
(PID.TID 0000.0001)  MDS_READ_FIELD: opening global file: ncep_qnet.bin
(PID.TID 0000.0001)  MDS_READ_FIELD: opening global file: ncep_qnet.bin
(PID.TID 0000.0001)  MDS_READ_FIELD: opening global file: lev_sst.bin
(PID.TID 0000.0001)  MDS_READ_FIELD: opening global file: lev_sst.bin
(PID.TID 0000.0001)  MDS_READ_FIELD: opening global file: lev_sss.bin
(PID.TID 0000.0001)  MDS_READ_FIELD: opening global file: lev_sss.bin
time,SST,SSS,fu,fv,Q,E-P,i0,i1,a,b =   0.0000E+00  5.3151E-02  3.4364E+01 -4.0500E-02 -6.3753E-02  2.6510E+02  0.0000E+00    12     1  5.0000E-01  5.0000E-01
time,fu0,fu1,fu =   0.0000E+00 -4.5368E-02 -3.5633E-02 -4.0500E-02  5.000000000000000E-01  5.000000000000000E-01
(PID.TID 0000.0001)  MDS_READ_FIELD: opening file: xx_hfluxm.0000000000.001.001.data
 cg2d: Sum(rhs),rhsMax =   1.47867829092263E-14  2.54952604282385E+00
time,SST,SSS,fu,fv,Q,E-P,i0,i1,a,b =   8.6400E+04  1.1350E-01  3.4387E+01 -4.0176E-02 -6.3320E-02  2.6514E+02  0.0000E+00    12     1  5.3333E-01  4.6667E-01
time,fu0,fu1,fu =   8.6400E+04 -4.5368E-02 -3.5633E-02 -4.0176E-02  5.333333333333333E-01  4.666666666666667E-01
 cg2d: Sum(rhs),rhsMax =   1.11299858218672E-14  2.62443215722193E+00
time,SST,SSS,fu,fv,Q,E-P,i0,i1,a,b =   1.7280E+05  1.7385E-01  3.4410E+01 -3.9851E-02 -6.2886E-02  2.6519E+02  0.0000E+00    12     1  5.6667E-01  4.3333E-01
time,fu0,fu1,fu =   1.7280E+05 -4.5368E-02 -3.5633E-02 -3.9851E-02  5.666666666666667E-01  4.333333333333333E-01
 cg2d: Sum(rhs),rhsMax =  -4.06480404890885E-14  2.39923446840278E+00
time,SST,SSS,fu,fv,Q,E-P,i0,i1,a,b =   2.5920E+05  2.3421E-01  3.4434E+01 -3.9527E-02 -6.2453E-02  2.6523E+02  0.0000E+00    12     1  6.0000E-01  4.0000E-01
time,fu0,fu1,fu =   2.5920E+05 -4.5368E-02 -3.5633E-02 -3.9527E-02  6.000000000000000E-01  4.000000000000000E-01
 cg2d: Sum(rhs),rhsMax =  -1.38500322321988E-14  2.21574359151329E+00
time,SST,SSS,fu,fv,Q,E-P,i0,i1,a,b =   3.4560E+05  2.9456E-01  3.4457E+01 -3.9202E-02 -6.2020E-02  2.6528E+02  0.0000E+00    12     1  6.3333E-01  3.6667E-01
time,fu0,fu1,fu =   3.4560E+05 -4.5368E-02 -3.5633E-02 -3.9202E-02  6.333333333333333E-01  3.666666666666667E-01
 cg2d: Sum(rhs),rhsMax =   3.45695694292658E-14  2.00995911954326E+00
time,SST,SSS,fu,fv,Q,E-P,i0,i1,a,b =   4.3200E+05  3.5491E-01  3.4481E+01 -3.8878E-02 -6.1587E-02  2.6532E+02  0.0000E+00    12     1  6.6667E-01  3.3333E-01
time,fu0,fu1,fu =   4.3200E+05 -4.5368E-02 -3.5633E-02 -3.8878E-02  6.666666666666666E-01  3.333333333333334E-01
 cg2d: Sum(rhs),rhsMax =   4.78506123613442E-14  1.78612610533025E+00
time,SST,SSS,fu,fv,Q,E-P,i0,i1,a,b =   5.1840E+05  4.1526E-01  3.4504E+01 -3.8553E-02 -6.1154E-02  2.6537E+02  0.0000E+00    12     1  7.0000E-01  3.0000E-01
time,fu0,fu1,fu =   5.1840E+05 -4.5368E-02 -3.5633E-02 -3.8553E-02  7.000000000000000E-01  3.000000000000000E-01
 cg2d: Sum(rhs),rhsMax =  -2.42861286636753E-15  1.55419822260070E+00
time,SST,SSS,fu,fv,Q,E-P,i0,i1,a,b =   6.0480E+05  4.7561E-01  3.4527E+01 -3.8229E-02 -6.0721E-02  2.6541E+02  0.0000E+00    12     1  7.3333E-01  2.6667E-01
time,fu0,fu1,fu =   6.0480E+05 -4.5368E-02 -3.5633E-02 -3.8229E-02  7.333333333333333E-01  2.666666666666667E-01
 cg2d: Sum(rhs),rhsMax =   6.76680933509033E-14  1.32823755952737E+00
time,SST,SSS,fu,fv,Q,E-P,i0,i1,a,b =   6.9120E+05  5.3596E-01  3.4551E+01 -3.7904E-02 -6.0288E-02  2.6546E+02  0.0000E+00    12     1  7.6667E-01  2.3333E-01
time,fu0,fu1,fu =   6.9120E+05 -4.5368E-02 -3.5633E-02 -3.7904E-02  7.666666666666667E-01  2.333333333333333E-01
 cg2d: Sum(rhs),rhsMax =  -4.08006961549745E-15  1.15613808765441E+00
time,SST,SSS,fu,fv,Q,E-P,i0,i1,a,b =   7.7760E+05  5.9632E-01  3.4574E+01 -3.7580E-02 -5.9855E-02  2.6550E+02  0.0000E+00    12     1  8.0000E-01  2.0000E-01
time,fu0,fu1,fu =   7.7760E+05 -4.5368E-02 -3.5633E-02 -3.7580E-02  8.000000000000000E-01  2.000000000000000E-01
 cg2d: Sum(rhs),rhsMax =  -2.83245649157493E-14  1.08384893708049E+00
(PID.TID 0000.0001) %CHECKPOINT        10 ckptA
(PID.TID 0000.0001) %CHECKPOINT        10 ckptB
 cg2d: Sum(rhs),rhsMax =   0.00000000000000E+00  0.00000000000000E+00
 cg2d: Sum(rhs),rhsMax =   2.60902410786912E-15  3.97563565665643E-08
 cg2d: Sum(rhs),rhsMax =  -2.31759056390501E-15  3.10259650978597E-08
 cg2d: Sum(rhs),rhsMax =   6.93889390390723E-16  4.29187618869766E-08
 cg2d: Sum(rhs),rhsMax =  -1.83186799063151E-15  8.59954046995447E-08
 cg2d: Sum(rhs),rhsMax =   1.11022302462516E-15  1.40011812585671E-07
 cg2d: Sum(rhs),rhsMax =   1.47104550762833E-15  2.19520885632238E-07
 cg2d: Sum(rhs),rhsMax =  -1.66533453693773E-16  3.27173361165313E-07
 cg2d: Sum(rhs),rhsMax =  -8.74300631892311E-16  4.53059077551340E-07
 cg2d: Sum(rhs),rhsMax =   5.20417042793042E-17  6.02162940107164E-07
(PID.TID 0000.0001)  MDS_READ_FIELD: opening file: adxx_hfluxm.0000000000.001.001.data
 ph-pack: packing costhflux
(PID.TID 0000.0001)  MDSREADFIELD_GL: opening file: whfluxm.001.001.data
(PID.TID 0000.0001)  MDSREADFIELD_GL: opening file: maskCtrlC.001.001.data
(PID.TID 0000.0001)  MDSREADFIELD_GL: opening file: adxx_hfluxm.0000000000.001.001.data
 ph-pack: packing ctrlhflux
(PID.TID 0000.0001)  MDSREADFIELD_GL: opening file: whfluxm.001.001.data
(PID.TID 0000.0001)  MDSREADFIELD_GL: opening file: maskCtrlC.001.001.data
(PID.TID 0000.0001)  MDSREADFIELD_GL: opening file: xx_hfluxm.0000000000.001.001.data
 ph-check entering grdchk_main 
 ph-check fcref =   6.20487645
grad-res -------------------------------
 grad-res  proc    #    i    j    k   bi   bj iobc               fc ref           fc + eps           fc - eps
 grad-res  proc    #    i    j    k   bi   bj iobc             adj grad            fd grad         1 - fd/adj
 grad-res exact position met: 
 grad-res     0 1872   76   27    1    1    1
 ph-grd -->hit<--  76 27 1 1
(PID.TID 0000.0001)  MDS_READ_FIELD: opening file: adxx_hfluxm.0000000000.001.001.data
(PID.TID 0000.0001)  MDS_READ_FIELD: opening file: xx_hfluxm.0000000000.001.001.data
(PID.TID 0000.0001)  MDS_READ_FIELD: opening global file: bathymetry.bin
(PID.TID 0000.0001) // =======================================================
(PID.TID 0000.0001) // Field Model R_low (ini_masks_etc) at iteration          1
(PID.TID 0000.0001) // CMIN =         -5.200000000000000E+03
(PID.TID 0000.0001) // CMAX =         -1.200000000000000E+02
(PID.TID 0000.0001) // CINT =          1.881481481481482E+02
(PID.TID 0000.0001) // SYMBOLS (CMIN->CMAX): -abcdefghijklmnopqrstuvwxyz+
(PID.TID 0000.0001) //                  0.0: .
(PID.TID 0000.0001) // RANGE I (Lo:Hi:Step):(  -1:  92:   1)
(PID.TID 0000.0001) // RANGE J (Lo:Hi:Step):(  42:  -1:  -1)
(PID.TID 0000.0001) // RANGE K (Lo:Hi:Step):(   1:   1:   1)
(PID.TID 0000.0001) // =======================================================
(PID.TID 0000.0001) K =   1
(PID.TID 0000.0001) //                I=8       I=18      I=28      I=38      I=48      I=58      I=68      I=78      I=88
(PID.TID 0000.0001) // |--J--|101234567|901234567|901234567|901234567|901234567|901234567|901234567|901234567|901234567|9012
(PID.TID 0000.0001) //     42 ............................................zyxxmgfeeefefgimnpwwwy..+zyy.....yyyyoiiihhz+.....
(PID.TID 0000.0001) //     41 ..............................................................................................
(PID.TID 0000.0001) //     40 qlloqz+.++++zzz++++++..................................................................+++qllo
(PID.TID 0000.0001) //     39 slloorzzzzzzzzz+...++.....................................................yxxz........+zvusllo
(PID.TID 0000.0001) //     38 mqpporzzzzzz+++...........................................................zxxy+......zyyvsmqpp
(PID.TID 0000.0001) //     37 mmmuz..................................................................++...zy+...yttyy.+smmmu
(PID.TID 0000.0001) //     36 utt+.........................................mm++....................+++++++znmm.yoowssvuyutt+
(PID.TID 0000.0001) //     35 ++++.................................+zzz..rrmmkk+...+gghn...........+++....+nmiijlsoopuww++++
(PID.TID 0000.0001) //     34 .....................................+vvy.ggqyxv+y.ccdffhim..................+nihhikkihhm+....
(PID.TID 0000.0001) //     33 +.....................................uuz---h------aaabdefin+.................zqvddflifffw+...
(PID.TID 0000.0001) //     32 +.....................................+t----h---------acdfgnn................+++gdffkofffm+...
(PID.TID 0000.0001) //     31 ......................................-----ad--------abddegil..............qbaafccdhqqgddm....
(PID.TID 0000.0001) //     30 .....................................f----b--b------------abd............zfbb--fbcdosjfddi....
(PID.TID 0000.0001) //     29 ...................................tu----e---fjg----------abdf...........eaac--abfmijaadgi....
(PID.TID 0000.0001) //     28 .................................+xfl-------------------bdedefi.........qbaa---aemfbbaaejz....
(PID.TID 0000.0001) //     27 ................xx..............+wfgfpf--------eallc---bbbccefgi...+++x.qb-----akfa---ah......
(PID.TID 0000.0001) //     26 ................xnn...........+vd---dna------a--aicfna---aabdfghku.++xssuy-----bgca---ci......
(PID.TID 0000.0001) //     25 ................iiik...oo+...+ivd---doaa-bc--ilglf--aa---aabcghhkll...ssum+xaaacjbaabdjk......
(PID.TID 0000.0001) //     24 ..............xnheeft.kkk+...uii.aagdm----aa-----a-------bbbcdefjljjju.zummwwbbchba--abi......
(PID.TID 0000.0001) //     23 ..............xgheefp.iikw...uuw..fihi----fed-----eaaa--bbbbcdfflkjiiiq....zykccefa--abd......
(PID.TID 0000.0001) //     22 uss...........bbelffslffkk...zz.wqkeeqoheccdfa-----egabaabcdddegghliiiqq......xeeehheehccquss.
(PID.TID 0000.0001) //     21 bbeir........nbbcdjhqdddiiz.....wqfeelgghmedea-----bibbcddddddefghklnqoo........ieeflhgcccbbei
(PID.TID 0000.0001) //     20 bbder.......ldcccdgkccccidd......z.vkkktqqhegg----aaacddddddddefghkiiijl.........nhfa--gfcbbde
(PID.TID 0000.0001) //     19 cdaaf.......kddosggpaaaibbccx...+z+.....r+nlec---agaaabcddccddefikfgffff...........d---cjhcdaa
(PID.TID 0000.0001) //     18 d---d.......kglggvliaaaibbcaaeaiv++...qqzolhecccfdgkaabcdfccdeeikgfgffdd+..........d---djhd---
(PID.TID 0000.0001) //     17 c---c.......l.feewlfaaaoaa----aiv.....qqnllslmlofcdbaacceffffhhligfigeddj.........hd---ckhc---
(PID.TID 0000.0001) //     16 ba--c......tn.ddgnlfdaaqa-----lv.......vnllvllnwv--accivomfffhilhgfffeddjf........re--aeigba--
(PID.TID 0000.0001) //     15 b--dpz....+ll.ccdfhmdddlc----av.........otsxoomv---abccddfihgijkhgfffeejfff......+fd---ckfb--d
(PID.TID 0000.0001) //     14 c--mcl....weeqbaafilkfend--eagy.........hhstofft----aacdheefijkmjhhjijiffff.....zlfdaaadlfc--m
(PID.TID 0000.0001) //     13 cclbbg....nccobaaiddgkffqrqeaal.........eeutqfft------aaceeffhijlkjhhigfffq....+jgfodccflhcclb
(PID.TID 0000.0001) //     12 hgaaacw+iiicclemhdddfliigfdcaabfaaaz....ccsurqpc--------abcifffikiiihhggff.....kbbbdfffglhhgaa
(PID.TID 0000.0001) //     11 gcaaacbbifccennhbbdefnihgfdccaaaa----..dcccnt.ncab-------aabcdfilhggjiggff....l---abcefjlkgcaa
(PID.TID 0000.0001) //     10 fcaaccbdaacfrllfbbdegkmmljhfdddba----d.dcccfx.nyrebaba----abcdgilhfeegijgi..+w--aa-abcfilkfcaa
(PID.TID 0000.0001) //      9 ffcdcccaaaoqsolfdeehikihhlllgfedcccccdmdcccf.vyfaaaaaaaa--abdehmjhfeeefglv.++w-----abcdfklffcd
(PID.TID 0000.0001) //      8 iffjklcaafddffeeccvznkfffhhhlkjifgjkkfeeddfsyvcaaaaaaccdcccdfgjligedbbceg+.++xffn--cfddefliffj
(PID.TID 0000.0001) //      7 mqnnbbkkf--bmbaabbgtykfddeffeeddccdfhlffeelfbaaaaaacddeghgjgjlligeddaaabedfiiiiiisvkfkecchmqnn
(PID.TID 0000.0001) //      6 ca-------------aabcelttdddedddddccccdfkkiiffbaaaabcdgimmkmefecaaabbbaaabbdfiiiiispmmregifcca--
(PID.TID 0000.0001) //      5 -------a-------aaccehhhiddeddddddcccdfiikomodddefffmlmigedccaaaaaaaababbbdfiijsqgeccccbaa-----
(PID.TID 0000.0001) //      4 -ahebaabbbbbeihffgijiiiijpywnnpokkomkiiijmmmolkommmgffeeedccaaaaaabbcccefhmz..yjgeccccbaa--ahe
(PID.TID 0000.0001) //      3 ffhhrpjiiwyy............................yxotmjjjjgfeeeeeeddeffffheddeghjkyy..yqjgeddccdbbgffhh
(PID.TID 0000.0001) //      2 ............................................zyxxmgfeeefefgimnpwwwy..+zyy.....yyyyoiiihhz+.....
(PID.TID 0000.0001) //      1 ..............................................................................................
(PID.TID 0000.0001) //      0 qlloqz+.++++zzz++++++..................................................................+++qllo
(PID.TID 0000.0001) //     -1 slloorzzzzzzzzz+...++.....................................................yxxz........+zvusllo
(PID.TID 0000.0001) // =======================================================
(PID.TID 0000.0001) // END OF FIELD                                          =
(PID.TID 0000.0001) // =======================================================
(PID.TID 0000.0001) 
(PID.TID 0000.0001) // =======================================================
(PID.TID 0000.0001) // Field Model Ro_surf (ini_masks_etc) at iteration          1
(PID.TID 0000.0001) // CMIN =          1.000000000000000E+32
(PID.TID 0000.0001) // CMAX =         -1.000000000000000E+32
(PID.TID 0000.0001) // CINT =          0.000000000000000E+00
(PID.TID 0000.0001) // SYMBOLS (CMIN->CMAX): -abcdefghijklmnopqrstuvwxyz+
(PID.TID 0000.0001) //                  0.0: .
(PID.TID 0000.0001) // RANGE I (Lo:Hi:Step):(  -1:  92:   1)
(PID.TID 0000.0001) // RANGE J (Lo:Hi:Step):(  42:  -1:  -1)
(PID.TID 0000.0001) // RANGE K (Lo:Hi:Step):(   1:   1:   1)
(PID.TID 0000.0001) // =======================================================
(PID.TID 0000.0001) // =======================================================
(PID.TID 0000.0001) // END OF FIELD                                          =
(PID.TID 0000.0001) // =======================================================
(PID.TID 0000.0001) 
(PID.TID 0000.0001) // =======================================================
(PID.TID 0000.0001) // Field hFacC at iteration          1
(PID.TID 0000.0001) // CMIN =          1.000000000000000E+00
(PID.TID 0000.0001) // CMAX =          1.000000000000000E+00
(PID.TID 0000.0001) // CINT =          0.000000000000000E+00
(PID.TID 0000.0001) // SYMBOLS (CMIN->CMAX): -abcdefghijklmnopqrstuvwxyz+
(PID.TID 0000.0001) //                  0.0: .
(PID.TID 0000.0001) // RANGE I (Lo:Hi:Step):(  -1:  92:   1)
(PID.TID 0000.0001) // RANGE J (Lo:Hi:Step):(  42:  -1:  -1)
(PID.TID 0000.0001) // RANGE K (Lo:Hi:Step):(   1:   1:   1)
(PID.TID 0000.0001) // =======================================================
(PID.TID 0000.0001) // =======================================================
(PID.TID 0000.0001) // END OF FIELD                                          =
(PID.TID 0000.0001) // =======================================================
(PID.TID 0000.0001) 
(PID.TID 0000.0001) // =======================================================
(PID.TID 0000.0001) // Field hFacW at iteration          1
(PID.TID 0000.0001) // CMIN =          1.000000000000000E+00
(PID.TID 0000.0001) // CMAX =          1.000000000000000E+00
(PID.TID 0000.0001) // CINT =          0.000000000000000E+00
(PID.TID 0000.0001) // SYMBOLS (CMIN->CMAX): -abcdefghijklmnopqrstuvwxyz+
(PID.TID 0000.0001) //                  0.0: .
(PID.TID 0000.0001) // RANGE I (Lo:Hi:Step):(  -1:  92:   1)
(PID.TID 0000.0001) // RANGE J (Lo:Hi:Step):(  42:  -1:  -1)
(PID.TID 0000.0001) // RANGE K (Lo:Hi:Step):(   1:   1:   1)
(PID.TID 0000.0001) // =======================================================
(PID.TID 0000.0001) // =======================================================
(PID.TID 0000.0001) // END OF FIELD                                          =
(PID.TID 0000.0001) // =======================================================
(PID.TID 0000.0001) 
(PID.TID 0000.0001) // =======================================================
(PID.TID 0000.0001) // Field hFacS at iteration          1
(PID.TID 0000.0001) // CMIN =          1.000000000000000E+00
(PID.TID 0000.0001) // CMAX =          1.000000000000000E+00
(PID.TID 0000.0001) // CINT =          0.000000000000000E+00
(PID.TID 0000.0001) // SYMBOLS (CMIN->CMAX): -abcdefghijklmnopqrstuvwxyz+
(PID.TID 0000.0001) //                  0.0: .
(PID.TID 0000.0001) // RANGE I (Lo:Hi:Step):(  -1:  92:   1)
(PID.TID 0000.0001) // RANGE J (Lo:Hi:Step):(  42:  -1:  -1)
(PID.TID 0000.0001) // RANGE K (Lo:Hi:Step):(   1:   1:   1)
(PID.TID 0000.0001) // =======================================================
(PID.TID 0000.0001) // =======================================================
(PID.TID 0000.0001) // END OF FIELD                                          =
(PID.TID 0000.0001) // =======================================================
(PID.TID 0000.0001) 
(PID.TID 0000.0001) %MON surfExpanfCori_max           =   1.4265546244797E-04
(PID.TID 0000.0001) %MON surfExpanfCori_min           =  -1.4265546244797E-04
(PID.TID 0000.0001) %MON surfExpanfCori_mean          =  -1.2347858075529E-21
(PID.TID 0000.0001) %MON surfExpanfCori_sd            =   9.6599226301547E-05
(PID.TID 0000.0001) %MON surfExpanfCoriG_max          =   1.4151032568025E-04
(PID.TID 0000.0001) %MON surfExpanfCoriG_min          =  -1.4362679550910E-04
(PID.TID 0000.0001) %MON surfExpanfCoriG_mean         =  -3.5906698877274E-06
(PID.TID 0000.0001) %MON surfExpanfCoriG_sd           =   9.6548915696244E-05
(PID.TID 0000.0001) %MON surfExpanfCoriCos_max        =   1.4575362704741E-04
(PID.TID 0000.0001) %MON surfExpanfCoriCos_min        =   3.0322354601388E-05
(PID.TID 0000.0001) %MON surfExpanfCoriCos_mean       =   1.0288600773632E-04
(PID.TID 0000.0001) %MON surfExpanfCoriCos_sd         =   3.6784304327266E-05
(PID.TID 0000.0001) INI_CG2D: CG2D normalisation factor =  6.5682677425711703E-05
(PID.TID 0000.0001) 
(PID.TID 0000.0001)  MDS_READ_FIELD: opening global file: lev_t.bin
(PID.TID 0000.0001) // =======================================================
(PID.TID 0000.0001) // Field Initial Temperature at iteration          1
(PID.TID 0000.0001) // CMIN =         -1.900000000000000E+00
(PID.TID 0000.0001) // CMAX =          2.973338890075684E+01
(PID.TID 0000.0001) // CINT =          1.171606996324327E+00
(PID.TID 0000.0001) // SYMBOLS (CMIN->CMAX): -abcdefghijklmnopqrstuvwxyz+
(PID.TID 0000.0001) //                  0.0: .
(PID.TID 0000.0001) // RANGE I (Lo:Hi:Step):(   1:  90:   1)
(PID.TID 0000.0001) // RANGE J (Lo:Hi:Step):(  40:   1:  -1)
(PID.TID 0000.0001) // RANGE K (Lo:Hi:Step):(   1:   1:   1)
(PID.TID 0000.0001) // =======================================================
(PID.TID 0000.0001) K =   1
(PID.TID 0000.0001)                I=10      I=20      I=30      I=40      I=50      I=60      I=70      I=80      I=90
(PID.TID 0000.0001) |--J--|123456789|123456789|123456789|123456789|123456789|123456789|123456789|123456789|123456789|
(PID.TID 0000.0001)     40 bccdd.baa----abdedd..................................................................bbbbb
(PID.TID 0000.0001)     39 ccdddddccbbbaa...ed.....................................................----........bbbbbb
(PID.TID 0000.0001)     38 fffgfedeedddc...........................................................-----......cbbbcde
(PID.TID 0000.0001)     37 ghh..................................................................bc...bbc...edeed.defg
(PID.TID 0000.0001)     36 hh.........................................ddcb....................dcccbabccdd.eefghhihhih
(PID.TID 0000.0001)     35 hh.................................aaab..dddeddd...ffggg...........ccc....ddeeeffghijjjjih
(PID.TID 0000.0001)     34 ...................................babb.deeeeeee.ffffgghh..................ccdffghijkkkj..
(PID.TID 0000.0001)     33 ....................................accdddeeeeefffffgghhiii.................bcfijkkllllkk.
(PID.TID 0000.0001)     32 ....................................bdddeffgffgghhhhhiiijjj................dccglmnmmmmlll.
(PID.TID 0000.0001)     31 ....................................fghiiiijjjjjjkkkkklllkk..............ikkjjmooooonnmm..
(PID.TID 0000.0001)     30 ...................................mmmnmmmmmmmmmmmmmnnnnnmm............moqrrrqrqqqpppooo..
(PID.TID 0000.0001)     29 .................................pqqqqqpppppppppoppoppppponm...........ssssssrrrrrqqqqpp..
(PID.TID 0000.0001)     28 ...............................prssssrrrsssrrrrrrrrrrrrrqqpoo.........uttssstssrssrrrqqq..
(PID.TID 0000.0001)     27 ..............vv..............stuttuuuuutuuuuuuuuuuttttssrrqqq...stuu.vvvuuuuutttttsss....
(PID.TID 0000.0001)     26 ..............vvv...........uuvvvvvwwwwwwwwvvvvvvvvvuuutttsssttv.uuvxxwwwwwwvvvvuuttsr....
(PID.TID 0000.0001)     25 ..............wwwx...xxx...vvvxxxxxyyxxxxxxxxxwwwwwvvvvvuuuuuvwwx...xxxxxxwwwwwwvvutsr....
(PID.TID 0000.0001)     24 ............wwwwxyy.xxyy...wxx.yyyyyyyyyyyxxxxxxxxwwwwwwwvvwwxxyywww.xxxxxxxxxxwwwvvur....
(PID.TID 0000.0001)     23 ............xxxyyyz.xyyy...xxx..yyyyzzyyyyyyyyxxxxxxxxxwwwwwxxxwwwwwx....vwxxxxwwwwwvu....
(PID.TID 0000.0001)     22 w...........xxyyyzyyyyyz...xx.yyzzzzzzzzzzzzzyyzyyyyyyxxwwxxxxwvvvwwxw......yyyyxxxxxxwxxw
(PID.TID 0000.0001)     21 xxx........xxxxyyzzzzzzz+.....zyzzzzzzz++zzzzyyyyyyyyxxwvvwwwwvvvvvvvu........yyyyyyyyyxxx
(PID.TID 0000.0001)     20 xww.......xyyyyxyyzzzzzz+......z.zzzzz+++zzzzzzyyyyyxxxxwvwxwvuuuuuuut.........yyyyxxxxwww
(PID.TID 0000.0001)     19 vvv.......yyyyxwwxyzyyzzzzz...zzz.....++++++z++z+zzzyyyyxxxxwwvvvvvvvu...........yyxxxwwww
(PID.TID 0000.0001)     18 uut.......zzyyywwxyzyyyyzzyzzzzzz...z+z++++zz+++++++zzzyyyyxxwwwvvvvvtt..........yyxxwvvwv
(PID.TID 0000.0001)     17 uus.......z.yyyyyyxyzzyyyyyyyzz.....yzzzzzzzzzzzzzzzzzzyyyyxxwwvuuvvuut.........yyyxxwttvu
(PID.TID 0000.0001)     16 utr......yy.zyyyyxxxxxxxwxxxxy.......yyyyyyyyyyyyyyyyyyyyyyyxxwvvvuuutts........xyyyxwvuuu
(PID.TID 0000.0001)     15 ttrr....xxx.xxxwxwwwwvwwvvvww.........xwxxxxxxxxxxxxxxxxxyyyxwwwvvuttssrr......wxxxxxwwvuu
(PID.TID 0000.0001)     14 ttsq....xyxwwxwvwwwvutuuuuuuu.........wwvwwwwvwvvwwwvwvvwwwwwwvvvuuutssrr.....vwwwwwwwvvvu
(PID.TID 0000.0001)     13 tttr....wwwvvvtttuuuutttssttt.........vvvuuuuuuutttttuuuuuvwwwuuuttttssrr....uvvvvvvvvvvut
(PID.TID 0000.0001)     12 sssssstttutssssrrrrrstrqqrrssqqrrq....uuttssssrrrrrrrrrrrstttssssrssrrqp.....uuuttssttssss
(PID.TID 0000.0001)     11 poprsssrqqqqqrqppooopqpoppppppppppp..sssrrr.rqpppqqqqppppqqqoppqqqqrqqpp....prsrqqqqqppppq
(PID.TID 0000.0001)     10 lllmoooonmnnmnnnnmmmmmmlmmlllmnnnnon.qqqppp.ppppppooooooooonmnnnonnooooo..nmoponnmnnnnnmll
(PID.TID 0000.0001)      9 ihhiiiihhhhhhiiihiiiiihhhiiiijjkkmnllnnnnn.mmmmnnnnmmmmnnmmlklllllklllll.mllmmllkjiijjihhi
(PID.TID 0000.0001)      8 eeeeeeeedefgggffeeffggffffggghiiiijjijklklkkkkkkkklllkkkkjjiiijkjjjjjjkj.kkjjiihggffffedde
(PID.TID 0000.0001)      7 cccccddeedddefeddddddddddefeefffffgggghiiiiiijjjihhgggghhhhhghhhhhhhiiiihiihhgfeddddddcccc
(PID.TID 0000.0001)      6 abbcccddcccccdddddccdddddddccddddddeeeeffggggghhgeddddddeeeeeeefggggghggggffeedccbbbbbbbba
(PID.TID 0000.0001)      5 bbbcccccccccccccccccccccbbccccdddddddcccddeeddeedcbbbbbbccccccdddeeeeeddddddccbbbbaaaaaaab
(PID.TID 0000.0001)      4 bbbbbbbaaabbbbbbbbbbbbaabbabbbbcbbbbbbbbbbbbbbbbbbbabbaaabbbbbbbbbbbbbbbbb..a--aaabbbaaabb
(PID.TID 0000.0001)      3 bbbbaaa-a-............................bbaaaaaaaaaaaaaaaaaaaaaaaaaaaaaaaab..aaaaaaaabbbaaaa
(PID.TID 0000.0001)      2 ..........................................baaaaaaaaaaaa-------aa..aaaa.....aaaaaaaaaaaa...
(PID.TID 0000.0001)      1 ..........................................................................................
(PID.TID 0000.0001) // =======================================================
(PID.TID 0000.0001) // END OF FIELD                                          =
(PID.TID 0000.0001) // =======================================================
(PID.TID 0000.0001) 
(PID.TID 0000.0001)  MDS_READ_FIELD: opening global file: lev_s.bin
(PID.TID 0000.0001) // =======================================================
(PID.TID 0000.0001) // Field Initial Salinity at iteration          1
(PID.TID 0000.0001) // CMIN =          2.975276947021484E+01
(PID.TID 0000.0001) // CMAX =          3.747562789916992E+01
(PID.TID 0000.0001) // CINT =          2.860317936650029E-01
(PID.TID 0000.0001) // SYMBOLS (CMIN->CMAX): -abcdefghijklmnopqrstuvwxyz+
(PID.TID 0000.0001) //                  0.0: .
(PID.TID 0000.0001) // RANGE I (Lo:Hi:Step):(   1:  90:   1)
(PID.TID 0000.0001) // RANGE J (Lo:Hi:Step):(  40:   1:  -1)
(PID.TID 0000.0001) // RANGE K (Lo:Hi:Step):(   1:   1:   1)
(PID.TID 0000.0001) // =======================================================
(PID.TID 0000.0001) K =   1
(PID.TID 0000.0001)                I=10      I=20      I=30      I=40      I=50      I=60      I=70      I=80      I=90
(PID.TID 0000.0001) |--J--|123456789|123456789|123456789|123456789|123456789|123456789|123456789|123456789|123456789|
(PID.TID 0000.0001)     40 qrrrr.oonnooopqtutt..................................................................mnnop
(PID.TID 0000.0001)     39 rssrrrrrrrqqpn...ut.....................................................mmmm........opqqqr
(PID.TID 0000.0001)     38 ssrrqqqqrrqpo...........................................................lkkll......onoqrrs
(PID.TID 0000.0001)     37 ssr..................................................................hg...lln...qppqr.rrrs
(PID.TID 0000.0001)     36 rr.........................................lkji....................feeegikmoop.pqrssssssss
(PID.TID 0000.0001)     35 rr.................................kkkk..lllllki...jijjj...........aa-....opqrrrrrrrssttss
(PID.TID 0000.0001)     34 ...................................jlll.kklllllk.ijkkkjih..................hlpqrqrrsstts..
(PID.TID 0000.0001)     33 ....................................iklkkkkkkkkkjkkjjjjjjii.................jmprrsstttttt.
(PID.TID 0000.0001)     32 ....................................iklllkllllllllkkkkkkkji................gilpstuuttuuut.
(PID.TID 0000.0001)     31 ....................................lmnonnnnoooonnmmmmllkjj..............loopqtvvvuuuuuu..
(PID.TID 0000.0001)     30 ...................................pppppppqqqqpppoooonnmlkk............ptvxwwvvwvvvvvvvu..
(PID.TID 0000.0001)     29 .................................pqqrqqqqqqrrrqqppqqqpponmll...........vxxxxxxwwwwwxwwxw..
(PID.TID 0000.0001)     28 ...............................prrrrrqqrrrrrsrrsrssssssrqonmm.........wxxxxxxxyyyyyyyyxx..
(PID.TID 0000.0001)     27 ..............xx..............prrrrrrrrrssssssstttssssssrqpoop...uwww.wwxxxyyy++zzzzyy....
(PID.TID 0000.0001)     26 ..............wxx...........ppqrrrrrrsssrrstsstttssrrrrrrrqppqqp.wwwvvwwwwwxyy+++zzyxw....
(PID.TID 0000.0001)     25 ..............wxxv...kkk...ooopqrrrrrssrrrrrrrssssqqpppppppppppoo...vvutuuvvwxyyyxxvvu....
(PID.TID 0000.0001)     24 ............uvvwwur.lmlk...nmm.pqqqqrrrrrqqqqrrqqrpppppooooonmmmnooo.uuuuuuttuvvvuvuut....
(PID.TID 0000.0001)     23 ............vvuvtqp.lmml...mln..ppppqpqppppppqpppppppppqppponnnnnoopm....xvuuuvvvvuuut....
(PID.TID 0000.0001)     22 r...........vuttsqqpnppn...mm.oppqqrrqqqqqqppppqqrrrqqqrrppppoopooomjj......uuvvvvvuttssrr
(PID.TID 0000.0001)     21 qmm........ttsssssssrsqon.....opqqqqqqqrrrrqqqssssssrrrrrrrrpqqqppomll........tvvvvuttssrr
(PID.TID 0000.0001)     20 sqq.......sttssrrsrrrrpol......p.qrqpqrrrrrrrstttttsssrrsssrqrrrrqqqpo.........wwwvvvuuutt
(PID.TID 0000.0001)     19 tsr.......ssssrrrrpppppnmmm...oqq.....qrqqsrrstttuuuttssttssrrssrrrrqq...........wwwvuvvvv
(PID.TID 0000.0001)     18 wut.......ssrrrrrqppppppppoooorrr...poqqqprrrttttuuutuuuuuutttttttutsss..........yyxwwxwxx
(PID.TID 0000.0001)     17 wwu.......s.rrrrrrqppppqqqqqqqr.....rrsrqrsssuusrtuuuvvvwwvvvuuuuutttss.........xyzyyyyxxx
(PID.TID 0000.0001)     16 vvt......ss.qrrssrqrqpqrrrrrrr.......ssrrstsstusrsuuuvwwwwxxwwvvvuttttsr........yz+zzzxwww
(PID.TID 0000.0001)     15 utss....stt.rrssstttsrrsrstsr.........ssstttssttsuuttuvvvvwxwwwwwuttsssrr......xyyyyxyyxwv
(PID.TID 0000.0001)     14 utts....sstrrssstuuuuuuuuuutt.........stttuutttttttuttttttuvvvvvvutsrqrrr.....vxxwwwwxwvwv
(PID.TID 0000.0001)     13 uuut....ttttttttuuuuuvtuuuuuu.........ttttuutttttttuutsssstttttstsqrqqppp....uwwwvuvvvutvv
(PID.TID 0000.0001)     12 ttttttttttttttttttttttssuuuuutuuut....tttttttttttsssssrrrrrrrqqqqqppppoo.....rvvuuttttttuu
(PID.TID 0000.0001)     11 rqsttttttttuuttttsssssrrstttttttsss..ttttts.tsssrrrrqqqqqppppoonnooooooo....oruttttsssrqrs
(PID.TID 0000.0001)     10 pppqrssrqqrqpqrssrrqqqqqqrrrrrrrrrrs.sssssr.rssrrqqpppppppooooonnnoooonn..moqrrrqqqqqqqqqq
(PID.TID 0000.0001)      9 oonooooooooonnnooooooooooppppppqqqqqrrrqrq.pppqqqqqppppppppppoooooooooll.lmoqqqqppooooopoo
(PID.TID 0000.0001)      8 nnnoonooooooonnnnnnnoooonoonoooppopqqqqqqqppopppqqqpppppppppppppppooopon.lnopppoooonnnnooo
(PID.TID 0000.0001)      7 ooooooooooopponnnooooooonnnnnonnooooooooopppppppoooooooooopppppppppoopqnnmnoooonnnonnnnnno
(PID.TID 0000.0001)      6 oooonnoonnnnooooooooooooonnnnnnnnnnnnnnnnoooopppooooooooooooooppppppppppoooooooonnnnnmnnnn
(PID.TID 0000.0001)      5 oooonnnnnnnnnnnnnnnnnoooooonnnnnnonnnnnnnnnoooooooooooonnnnnnooooooopoooonoooonnnnnnnooooo
(PID.TID 0000.0001)      4 oooonnnooonnnnnnnnnnnnnnoooooonnnooooonnnooooooooppponnnnmmmnnnnmnnoonnnnn..nnnooooooooooo
(PID.TID 0000.0001)      3 ooonnnnnnn............................nnoooooonnooooonnnnnnnoonnnnnnnnmmm..ooopooooooooooo
(PID.TID 0000.0001)      2 ..........................................pppooooonnnnnnoooppppo..nnnn.....qqqpppoooooo...
(PID.TID 0000.0001)      1 ..........................................................................................
(PID.TID 0000.0001) // =======================================================
(PID.TID 0000.0001) // END OF FIELD                                          =
(PID.TID 0000.0001) // =======================================================
(PID.TID 0000.0001) 
(PID.TID 0000.0001) Start initial hydrostatic pressure computation
(PID.TID 0000.0001) Pressure is predetermined for buoyancyRelation OCEANIC
(PID.TID 0000.0001) 
(PID.TID 0000.0001)  MDS_READ_FIELD: opening global file: trenberth_taux.bin
(PID.TID 0000.0001)  MDS_READ_FIELD: opening global file: trenberth_tauy.bin
(PID.TID 0000.0001)  MDS_READ_FIELD: opening global file: ncep_qnet.bin
(PID.TID 0000.0001)  MDS_READ_FIELD: opening global file: lev_sst.bin
(PID.TID 0000.0001)  MDS_READ_FIELD: opening global file: lev_sss.bin
(PID.TID 0000.0001) // =======================================================
(PID.TID 0000.0001) // Model current state
(PID.TID 0000.0001) // =======================================================
(PID.TID 0000.0001) 
S/R EXTERNAL_FIELDS_LOAD: Reading new data:   12    1         0  0.000000000000E+00
(PID.TID 0000.0001)  MDS_READ_FIELD: opening global file: trenberth_taux.bin
(PID.TID 0000.0001)  MDS_READ_FIELD: opening global file: trenberth_taux.bin
(PID.TID 0000.0001)  MDS_READ_FIELD: opening global file: trenberth_tauy.bin
(PID.TID 0000.0001)  MDS_READ_FIELD: opening global file: trenberth_tauy.bin
(PID.TID 0000.0001)  MDS_READ_FIELD: opening global file: ncep_qnet.bin
(PID.TID 0000.0001)  MDS_READ_FIELD: opening global file: ncep_qnet.bin
(PID.TID 0000.0001)  MDS_READ_FIELD: opening global file: lev_sst.bin
(PID.TID 0000.0001)  MDS_READ_FIELD: opening global file: lev_sst.bin
(PID.TID 0000.0001)  MDS_READ_FIELD: opening global file: lev_sss.bin
(PID.TID 0000.0001)  MDS_READ_FIELD: opening global file: lev_sss.bin
time,SST,SSS,fu,fv,Q,E-P,i0,i1,a,b =   0.0000E+00  5.3151E-02  3.4364E+01 -4.0500E-02 -6.3753E-02  2.6510E+02  0.0000E+00    12     1  5.0000E-01  5.0000E-01
time,fu0,fu1,fu =   0.0000E+00 -4.5368E-02 -3.5633E-02 -4.0500E-02  5.000000000000000E-01  5.000000000000000E-01
(PID.TID 0000.0001)  MDS_READ_FIELD: opening file: xx_hfluxm.0000000000.001.001.data
 cg2d: Sum(rhs),rhsMax =   1.47867829092263E-14  2.54952604282385E+00
time,SST,SSS,fu,fv,Q,E-P,i0,i1,a,b =   8.6400E+04  1.1350E-01  3.4387E+01 -4.0176E-02 -6.3320E-02  2.6514E+02  0.0000E+00    12     1  5.3333E-01  4.6667E-01
time,fu0,fu1,fu =   8.6400E+04 -4.5368E-02 -3.5633E-02 -4.0176E-02  5.333333333333333E-01  4.666666666666667E-01
 cg2d: Sum(rhs),rhsMax =   1.11299858218672E-14  2.62443215722193E+00
time,SST,SSS,fu,fv,Q,E-P,i0,i1,a,b =   1.7280E+05  1.7385E-01  3.4410E+01 -3.9851E-02 -6.2886E-02  2.6519E+02  0.0000E+00    12     1  5.6667E-01  4.3333E-01
time,fu0,fu1,fu =   1.7280E+05 -4.5368E-02 -3.5633E-02 -3.9851E-02  5.666666666666667E-01  4.333333333333333E-01
 cg2d: Sum(rhs),rhsMax =  -2.48412401759879E-14  2.39923446842502E+00
time,SST,SSS,fu,fv,Q,E-P,i0,i1,a,b =   2.5920E+05  2.3421E-01  3.4434E+01 -3.9527E-02 -6.2453E-02  2.6523E+02  0.0000E+00    12     1  6.0000E-01  4.0000E-01
time,fu0,fu1,fu =   2.5920E+05 -4.5368E-02 -3.5633E-02 -3.9527E-02  6.000000000000000E-01  4.000000000000000E-01
 cg2d: Sum(rhs),rhsMax =   8.90953977261688E-15  2.21574359162085E+00
time,SST,SSS,fu,fv,Q,E-P,i0,i1,a,b =   3.4560E+05  2.9456E-01  3.4457E+01 -3.9202E-02 -6.2020E-02  2.6528E+02  0.0000E+00    12     1  6.3333E-01  3.6667E-01
time,fu0,fu1,fu =   3.4560E+05 -4.5368E-02 -3.5633E-02 -3.9202E-02  6.333333333333333E-01  3.666666666666667E-01
 cg2d: Sum(rhs),rhsMax =   1.29340982368831E-14  2.00995911981618E+00
time,SST,SSS,fu,fv,Q,E-P,i0,i1,a,b =   4.3200E+05  3.5491E-01  3.4481E+01 -3.8878E-02 -6.1587E-02  2.6532E+02  0.0000E+00    12     1  6.6667E-01  3.3333E-01
time,fu0,fu1,fu =   4.3200E+05 -4.5368E-02 -3.5633E-02 -3.8878E-02  6.666666666666666E-01  3.333333333333334E-01
 cg2d: Sum(rhs),rhsMax =  -5.96050986345631E-14  1.78612610582412E+00
time,SST,SSS,fu,fv,Q,E-P,i0,i1,a,b =   5.1840E+05  4.1526E-01  3.4504E+01 -3.8553E-02 -6.1154E-02  2.6537E+02  0.0000E+00    12     1  7.0000E-01  3.0000E-01
time,fu0,fu1,fu =   5.1840E+05 -4.5368E-02 -3.5633E-02 -3.8553E-02  7.000000000000000E-01  3.000000000000000E-01
 cg2d: Sum(rhs),rhsMax =   1.60843560692570E-14  1.55419822330545E+00
time,SST,SSS,fu,fv,Q,E-P,i0,i1,a,b =   6.0480E+05  4.7561E-01  3.4527E+01 -3.8229E-02 -6.0721E-02  2.6541E+02  0.0000E+00    12     1  7.3333E-01  2.6667E-01
time,fu0,fu1,fu =   6.0480E+05 -4.5368E-02 -3.5633E-02 -3.8229E-02  7.333333333333333E-01  2.666666666666667E-01
 cg2d: Sum(rhs),rhsMax =  -2.23016050071578E-14  1.32823756039381E+00
time,SST,SSS,fu,fv,Q,E-P,i0,i1,a,b =   6.9120E+05  5.3596E-01  3.4551E+01 -3.7904E-02 -6.0288E-02  2.6546E+02  0.0000E+00    12     1  7.6667E-01  2.3333E-01
time,fu0,fu1,fu =   6.9120E+05 -4.5368E-02 -3.5633E-02 -3.7904E-02  7.666666666666667E-01  2.333333333333333E-01
 cg2d: Sum(rhs),rhsMax =   1.26565424807268E-14  1.15613808773601E+00
time,SST,SSS,fu,fv,Q,E-P,i0,i1,a,b =   7.7760E+05  5.9632E-01  3.4574E+01 -3.7580E-02 -5.9855E-02  2.6550E+02  0.0000E+00    12     1  8.0000E-01  2.0000E-01
time,fu0,fu1,fu =   7.7760E+05 -4.5368E-02 -3.5633E-02 -3.7580E-02  8.000000000000000E-01  2.000000000000000E-01
 cg2d: Sum(rhs),rhsMax =   3.64153152077051E-14  1.08384893720186E+00
(PID.TID 0000.0001) %CHECKPOINT        10 ckptA
(PID.TID 0000.0001)  MDS_READ_FIELD: opening global file: lev_t_an.bin
 --> objf_test(bi,bj)   =  0.000000000000000E+00
 --> objf_tracer(bi,bj) =  0.000000000000000E+00
 --> objf_atl(bi,bj)    =  0.000000000000000E+00
 --> objf_temp_tut(bi,bj)   =  0.620487709676436E+01
 --> objf_hflux_tut(bi,bj) =  0.313106895974920E-08
  local fc =  0.620487710302650E+01
 global fc =  0.620487710302650E+01
 ph-check fcpertplus =   6.2048771
(PID.TID 0000.0001)  MDS_READ_FIELD: opening file: xx_hfluxm.0000000000.001.001.data
 ph-check fcpertminus =   6.20487645
(PID.TID 0000.0001)  MDS_READ_FIELD: opening file: xx_hfluxm.0000000000.001.001.data
(PID.TID 0000.0001)  MDS_READ_FIELD: opening global file: bathymetry.bin
(PID.TID 0000.0001) // =======================================================
(PID.TID 0000.0001) // Field Model R_low (ini_masks_etc) at iteration          1
(PID.TID 0000.0001) // CMIN =         -5.200000000000000E+03
(PID.TID 0000.0001) // CMAX =         -1.200000000000000E+02
(PID.TID 0000.0001) // CINT =          1.881481481481482E+02
(PID.TID 0000.0001) // SYMBOLS (CMIN->CMAX): -abcdefghijklmnopqrstuvwxyz+
(PID.TID 0000.0001) //                  0.0: .
(PID.TID 0000.0001) // RANGE I (Lo:Hi:Step):(  -1:  92:   1)
(PID.TID 0000.0001) // RANGE J (Lo:Hi:Step):(  42:  -1:  -1)
(PID.TID 0000.0001) // RANGE K (Lo:Hi:Step):(   1:   1:   1)
(PID.TID 0000.0001) // =======================================================
(PID.TID 0000.0001) K =   1
(PID.TID 0000.0001) //                I=8       I=18      I=28      I=38      I=48      I=58      I=68      I=78      I=88
(PID.TID 0000.0001) // |--J--|101234567|901234567|901234567|901234567|901234567|901234567|901234567|901234567|901234567|9012
(PID.TID 0000.0001) //     42 ............................................zyxxmgfeeefefgimnpwwwy..+zyy.....yyyyoiiihhz+.....
(PID.TID 0000.0001) //     41 ..............................................................................................
(PID.TID 0000.0001) //     40 qlloqz+.++++zzz++++++..................................................................+++qllo
(PID.TID 0000.0001) //     39 slloorzzzzzzzzz+...++.....................................................yxxz........+zvusllo
(PID.TID 0000.0001) //     38 mqpporzzzzzz+++...........................................................zxxy+......zyyvsmqpp
(PID.TID 0000.0001) //     37 mmmuz..................................................................++...zy+...yttyy.+smmmu
(PID.TID 0000.0001) //     36 utt+.........................................mm++....................+++++++znmm.yoowssvuyutt+
(PID.TID 0000.0001) //     35 ++++.................................+zzz..rrmmkk+...+gghn...........+++....+nmiijlsoopuww++++
(PID.TID 0000.0001) //     34 .....................................+vvy.ggqyxv+y.ccdffhim..................+nihhikkihhm+....
(PID.TID 0000.0001) //     33 +.....................................uuz---h------aaabdefin+.................zqvddflifffw+...
(PID.TID 0000.0001) //     32 +.....................................+t----h---------acdfgnn................+++gdffkofffm+...
(PID.TID 0000.0001) //     31 ......................................-----ad--------abddegil..............qbaafccdhqqgddm....
(PID.TID 0000.0001) //     30 .....................................f----b--b------------abd............zfbb--fbcdosjfddi....
(PID.TID 0000.0001) //     29 ...................................tu----e---fjg----------abdf...........eaac--abfmijaadgi....
(PID.TID 0000.0001) //     28 .................................+xfl-------------------bdedefi.........qbaa---aemfbbaaejz....
(PID.TID 0000.0001) //     27 ................xx..............+wfgfpf--------eallc---bbbccefgi...+++x.qb-----akfa---ah......
(PID.TID 0000.0001) //     26 ................xnn...........+vd---dna------a--aicfna---aabdfghku.++xssuy-----bgca---ci......
(PID.TID 0000.0001) //     25 ................iiik...oo+...+ivd---doaa-bc--ilglf--aa---aabcghhkll...ssum+xaaacjbaabdjk......
(PID.TID 0000.0001) //     24 ..............xnheeft.kkk+...uii.aagdm----aa-----a-------bbbcdefjljjju.zummwwbbchba--abi......
(PID.TID 0000.0001) //     23 ..............xgheefp.iikw...uuw..fihi----fed-----eaaa--bbbbcdfflkjiiiq....zykccefa--abd......
(PID.TID 0000.0001) //     22 uss...........bbelffslffkk...zz.wqkeeqoheccdfa-----egabaabcdddegghliiiqq......xeeehheehccquss.
(PID.TID 0000.0001) //     21 bbeir........nbbcdjhqdddiiz.....wqfeelgghmedea-----bibbcddddddefghklnqoo........ieeflhgcccbbei
(PID.TID 0000.0001) //     20 bbder.......ldcccdgkccccidd......z.vkkktqqhegg----aaacddddddddefghkiiijl.........nhfa--gfcbbde
(PID.TID 0000.0001) //     19 cdaaf.......kddosggpaaaibbccx...+z+.....r+nlec---agaaabcddccddefikfgffff...........d---cjhcdaa
(PID.TID 0000.0001) //     18 d---d.......kglggvliaaaibbcaaeaiv++...qqzolhecccfdgkaabcdfccdeeikgfgffdd+..........d---djhd---
(PID.TID 0000.0001) //     17 c---c.......l.feewlfaaaoaa----aiv.....qqnllslmlofcdbaacceffffhhligfigeddj.........hd---ckhc---
(PID.TID 0000.0001) //     16 ba--c......tn.ddgnlfdaaqa-----lv.......vnllvllnwv--accivomfffhilhgfffeddjf........re--aeigba--
(PID.TID 0000.0001) //     15 b--dpz....+ll.ccdfhmdddlc----av.........otsxoomv---abccddfihgijkhgfffeejfff......+fd---ckfb--d
(PID.TID 0000.0001) //     14 c--mcl....weeqbaafilkfend--eagy.........hhstofft----aacdheefijkmjhhjijiffff.....zlfdaaadlfc--m
(PID.TID 0000.0001) //     13 cclbbg....nccobaaiddgkffqrqeaal.........eeutqfft------aaceeffhijlkjhhigfffq....+jgfodccflhcclb
(PID.TID 0000.0001) //     12 hgaaacw+iiicclemhdddfliigfdcaabfaaaz....ccsurqpc--------abcifffikiiihhggff.....kbbbdfffglhhgaa
(PID.TID 0000.0001) //     11 gcaaacbbifccennhbbdefnihgfdccaaaa----..dcccnt.ncab-------aabcdfilhggjiggff....l---abcefjlkgcaa
(PID.TID 0000.0001) //     10 fcaaccbdaacfrllfbbdegkmmljhfdddba----d.dcccfx.nyrebaba----abcdgilhfeegijgi..+w--aa-abcfilkfcaa
(PID.TID 0000.0001) //      9 ffcdcccaaaoqsolfdeehikihhlllgfedcccccdmdcccf.vyfaaaaaaaa--abdehmjhfeeefglv.++w-----abcdfklffcd
(PID.TID 0000.0001) //      8 iffjklcaafddffeeccvznkfffhhhlkjifgjkkfeeddfsyvcaaaaaaccdcccdfgjligedbbceg+.++xffn--cfddefliffj
(PID.TID 0000.0001) //      7 mqnnbbkkf--bmbaabbgtykfddeffeeddccdfhlffeelfbaaaaaacddeghgjgjlligeddaaabedfiiiiiisvkfkecchmqnn
(PID.TID 0000.0001) //      6 ca-------------aabcelttdddedddddccccdfkkiiffbaaaabcdgimmkmefecaaabbbaaabbdfiiiiispmmregifcca--
(PID.TID 0000.0001) //      5 -------a-------aaccehhhiddeddddddcccdfiikomodddefffmlmigedccaaaaaaaababbbdfiijsqgeccccbaa-----
(PID.TID 0000.0001) //      4 -ahebaabbbbbeihffgijiiiijpywnnpokkomkiiijmmmolkommmgffeeedccaaaaaabbcccefhmz..yjgeccccbaa--ahe
(PID.TID 0000.0001) //      3 ffhhrpjiiwyy............................yxotmjjjjgfeeeeeeddeffffheddeghjkyy..yqjgeddccdbbgffhh
(PID.TID 0000.0001) //      2 ............................................zyxxmgfeeefefgimnpwwwy..+zyy.....yyyyoiiihhz+.....
(PID.TID 0000.0001) //      1 ..............................................................................................
(PID.TID 0000.0001) //      0 qlloqz+.++++zzz++++++..................................................................+++qllo
(PID.TID 0000.0001) //     -1 slloorzzzzzzzzz+...++.....................................................yxxz........+zvusllo
(PID.TID 0000.0001) // =======================================================
(PID.TID 0000.0001) // END OF FIELD                                          =
(PID.TID 0000.0001) // =======================================================
(PID.TID 0000.0001) 
(PID.TID 0000.0001) // =======================================================
(PID.TID 0000.0001) // Field Model Ro_surf (ini_masks_etc) at iteration          1
(PID.TID 0000.0001) // CMIN =          1.000000000000000E+32
(PID.TID 0000.0001) // CMAX =         -1.000000000000000E+32
(PID.TID 0000.0001) // CINT =          0.000000000000000E+00
(PID.TID 0000.0001) // SYMBOLS (CMIN->CMAX): -abcdefghijklmnopqrstuvwxyz+
(PID.TID 0000.0001) //                  0.0: .
(PID.TID 0000.0001) // RANGE I (Lo:Hi:Step):(  -1:  92:   1)
(PID.TID 0000.0001) // RANGE J (Lo:Hi:Step):(  42:  -1:  -1)
(PID.TID 0000.0001) // RANGE K (Lo:Hi:Step):(   1:   1:   1)
(PID.TID 0000.0001) // =======================================================
(PID.TID 0000.0001) // =======================================================
(PID.TID 0000.0001) // END OF FIELD                                          =
(PID.TID 0000.0001) // =======================================================
(PID.TID 0000.0001) 
(PID.TID 0000.0001) // =======================================================
(PID.TID 0000.0001) // Field hFacC at iteration          1
(PID.TID 0000.0001) // CMIN =          1.000000000000000E+00
(PID.TID 0000.0001) // CMAX =          1.000000000000000E+00
(PID.TID 0000.0001) // CINT =          0.000000000000000E+00
(PID.TID 0000.0001) // SYMBOLS (CMIN->CMAX): -abcdefghijklmnopqrstuvwxyz+
(PID.TID 0000.0001) //                  0.0: .
(PID.TID 0000.0001) // RANGE I (Lo:Hi:Step):(  -1:  92:   1)
(PID.TID 0000.0001) // RANGE J (Lo:Hi:Step):(  42:  -1:  -1)
(PID.TID 0000.0001) // RANGE K (Lo:Hi:Step):(   1:   1:   1)
(PID.TID 0000.0001) // =======================================================
(PID.TID 0000.0001) // =======================================================
(PID.TID 0000.0001) // END OF FIELD                                          =
(PID.TID 0000.0001) // =======================================================
(PID.TID 0000.0001) 
(PID.TID 0000.0001) // =======================================================
(PID.TID 0000.0001) // Field hFacW at iteration          1
(PID.TID 0000.0001) // CMIN =          1.000000000000000E+00
(PID.TID 0000.0001) // CMAX =          1.000000000000000E+00
(PID.TID 0000.0001) // CINT =          0.000000000000000E+00
(PID.TID 0000.0001) // SYMBOLS (CMIN->CMAX): -abcdefghijklmnopqrstuvwxyz+
(PID.TID 0000.0001) //                  0.0: .
(PID.TID 0000.0001) // RANGE I (Lo:Hi:Step):(  -1:  92:   1)
(PID.TID 0000.0001) // RANGE J (Lo:Hi:Step):(  42:  -1:  -1)
(PID.TID 0000.0001) // RANGE K (Lo:Hi:Step):(   1:   1:   1)
(PID.TID 0000.0001) // =======================================================
(PID.TID 0000.0001) // =======================================================
(PID.TID 0000.0001) // END OF FIELD                                          =
(PID.TID 0000.0001) // =======================================================
(PID.TID 0000.0001) 
(PID.TID 0000.0001) // =======================================================
(PID.TID 0000.0001) // Field hFacS at iteration          1
(PID.TID 0000.0001) // CMIN =          1.000000000000000E+00
(PID.TID 0000.0001) // CMAX =          1.000000000000000E+00
(PID.TID 0000.0001) // CINT =          0.000000000000000E+00
(PID.TID 0000.0001) // SYMBOLS (CMIN->CMAX): -abcdefghijklmnopqrstuvwxyz+
(PID.TID 0000.0001) //                  0.0: .
(PID.TID 0000.0001) // RANGE I (Lo:Hi:Step):(  -1:  92:   1)
(PID.TID 0000.0001) // RANGE J (Lo:Hi:Step):(  42:  -1:  -1)
(PID.TID 0000.0001) // RANGE K (Lo:Hi:Step):(   1:   1:   1)
(PID.TID 0000.0001) // =======================================================
(PID.TID 0000.0001) // =======================================================
(PID.TID 0000.0001) // END OF FIELD                                          =
(PID.TID 0000.0001) // =======================================================
(PID.TID 0000.0001) 
(PID.TID 0000.0001) %MON surfExpanfCori_max           =   1.4265546244797E-04
(PID.TID 0000.0001) %MON surfExpanfCori_min           =  -1.4265546244797E-04
(PID.TID 0000.0001) %MON surfExpanfCori_mean          =  -1.2347858075529E-21
(PID.TID 0000.0001) %MON surfExpanfCori_sd            =   9.6599226301547E-05
(PID.TID 0000.0001) %MON surfExpanfCoriG_max          =   1.4151032568025E-04
(PID.TID 0000.0001) %MON surfExpanfCoriG_min          =  -1.4362679550910E-04
(PID.TID 0000.0001) %MON surfExpanfCoriG_mean         =  -3.5906698877274E-06
(PID.TID 0000.0001) %MON surfExpanfCoriG_sd           =   9.6548915696244E-05
(PID.TID 0000.0001) %MON surfExpanfCoriCos_max        =   1.4575362704741E-04
(PID.TID 0000.0001) %MON surfExpanfCoriCos_min        =   3.0322354601388E-05
(PID.TID 0000.0001) %MON surfExpanfCoriCos_mean       =   1.0288600773632E-04
(PID.TID 0000.0001) %MON surfExpanfCoriCos_sd         =   3.6784304327266E-05
(PID.TID 0000.0001) INI_CG2D: CG2D normalisation factor =  6.5682677425711703E-05
(PID.TID 0000.0001) 
(PID.TID 0000.0001)  MDS_READ_FIELD: opening global file: lev_t.bin
(PID.TID 0000.0001) // =======================================================
(PID.TID 0000.0001) // Field Initial Temperature at iteration          1
(PID.TID 0000.0001) // CMIN =         -1.900000000000000E+00
(PID.TID 0000.0001) // CMAX =          2.973338890075684E+01
(PID.TID 0000.0001) // CINT =          1.171606996324327E+00
(PID.TID 0000.0001) // SYMBOLS (CMIN->CMAX): -abcdefghijklmnopqrstuvwxyz+
(PID.TID 0000.0001) //                  0.0: .
(PID.TID 0000.0001) // RANGE I (Lo:Hi:Step):(   1:  90:   1)
(PID.TID 0000.0001) // RANGE J (Lo:Hi:Step):(  40:   1:  -1)
(PID.TID 0000.0001) // RANGE K (Lo:Hi:Step):(   1:   1:   1)
(PID.TID 0000.0001) // =======================================================
(PID.TID 0000.0001) K =   1
(PID.TID 0000.0001)                I=10      I=20      I=30      I=40      I=50      I=60      I=70      I=80      I=90
(PID.TID 0000.0001) |--J--|123456789|123456789|123456789|123456789|123456789|123456789|123456789|123456789|123456789|
(PID.TID 0000.0001)     40 bccdd.baa----abdedd..................................................................bbbbb
(PID.TID 0000.0001)     39 ccdddddccbbbaa...ed.....................................................----........bbbbbb
(PID.TID 0000.0001)     38 fffgfedeedddc...........................................................-----......cbbbcde
(PID.TID 0000.0001)     37 ghh..................................................................bc...bbc...edeed.defg
(PID.TID 0000.0001)     36 hh.........................................ddcb....................dcccbabccdd.eefghhihhih
(PID.TID 0000.0001)     35 hh.................................aaab..dddeddd...ffggg...........ccc....ddeeeffghijjjjih
(PID.TID 0000.0001)     34 ...................................babb.deeeeeee.ffffgghh..................ccdffghijkkkj..
(PID.TID 0000.0001)     33 ....................................accdddeeeeefffffgghhiii.................bcfijkkllllkk.
(PID.TID 0000.0001)     32 ....................................bdddeffgffgghhhhhiiijjj................dccglmnmmmmlll.
(PID.TID 0000.0001)     31 ....................................fghiiiijjjjjjkkkkklllkk..............ikkjjmooooonnmm..
(PID.TID 0000.0001)     30 ...................................mmmnmmmmmmmmmmmmmnnnnnmm............moqrrrqrqqqpppooo..
(PID.TID 0000.0001)     29 .................................pqqqqqpppppppppoppoppppponm...........ssssssrrrrrqqqqpp..
(PID.TID 0000.0001)     28 ...............................prssssrrrsssrrrrrrrrrrrrrqqpoo.........uttssstssrssrrrqqq..
(PID.TID 0000.0001)     27 ..............vv..............stuttuuuuutuuuuuuuuuuttttssrrqqq...stuu.vvvuuuuutttttsss....
(PID.TID 0000.0001)     26 ..............vvv...........uuvvvvvwwwwwwwwvvvvvvvvvuuutttsssttv.uuvxxwwwwwwvvvvuuttsr....
(PID.TID 0000.0001)     25 ..............wwwx...xxx...vvvxxxxxyyxxxxxxxxxwwwwwvvvvvuuuuuvwwx...xxxxxxwwwwwwvvutsr....
(PID.TID 0000.0001)     24 ............wwwwxyy.xxyy...wxx.yyyyyyyyyyyxxxxxxxxwwwwwwwvvwwxxyywww.xxxxxxxxxxwwwvvur....
(PID.TID 0000.0001)     23 ............xxxyyyz.xyyy...xxx..yyyyzzyyyyyyyyxxxxxxxxxwwwwwxxxwwwwwx....vwxxxxwwwwwvu....
(PID.TID 0000.0001)     22 w...........xxyyyzyyyyyz...xx.yyzzzzzzzzzzzzzyyzyyyyyyxxwwxxxxwvvvwwxw......yyyyxxxxxxwxxw
(PID.TID 0000.0001)     21 xxx........xxxxyyzzzzzzz+.....zyzzzzzzz++zzzzyyyyyyyyxxwvvwwwwvvvvvvvu........yyyyyyyyyxxx
(PID.TID 0000.0001)     20 xww.......xyyyyxyyzzzzzz+......z.zzzzz+++zzzzzzyyyyyxxxxwvwxwvuuuuuuut.........yyyyxxxxwww
(PID.TID 0000.0001)     19 vvv.......yyyyxwwxyzyyzzzzz...zzz.....++++++z++z+zzzyyyyxxxxwwvvvvvvvu...........yyxxxwwww
(PID.TID 0000.0001)     18 uut.......zzyyywwxyzyyyyzzyzzzzzz...z+z++++zz+++++++zzzyyyyxxwwwvvvvvtt..........yyxxwvvwv
(PID.TID 0000.0001)     17 uus.......z.yyyyyyxyzzyyyyyyyzz.....yzzzzzzzzzzzzzzzzzzyyyyxxwwvuuvvuut.........yyyxxwttvu
(PID.TID 0000.0001)     16 utr......yy.zyyyyxxxxxxxwxxxxy.......yyyyyyyyyyyyyyyyyyyyyyyxxwvvvuuutts........xyyyxwvuuu
(PID.TID 0000.0001)     15 ttrr....xxx.xxxwxwwwwvwwvvvww.........xwxxxxxxxxxxxxxxxxxyyyxwwwvvuttssrr......wxxxxxwwvuu
(PID.TID 0000.0001)     14 ttsq....xyxwwxwvwwwvutuuuuuuu.........wwvwwwwvwvvwwwvwvvwwwwwwvvvuuutssrr.....vwwwwwwwvvvu
(PID.TID 0000.0001)     13 tttr....wwwvvvtttuuuutttssttt.........vvvuuuuuuutttttuuuuuvwwwuuuttttssrr....uvvvvvvvvvvut
(PID.TID 0000.0001)     12 sssssstttutssssrrrrrstrqqrrssqqrrq....uuttssssrrrrrrrrrrrstttssssrssrrqp.....uuuttssttssss
(PID.TID 0000.0001)     11 poprsssrqqqqqrqppooopqpoppppppppppp..sssrrr.rqpppqqqqppppqqqoppqqqqrqqpp....prsrqqqqqppppq
(PID.TID 0000.0001)     10 lllmoooonmnnmnnnnmmmmmmlmmlllmnnnnon.qqqppp.ppppppooooooooonmnnnonnooooo..nmoponnmnnnnnmll
(PID.TID 0000.0001)      9 ihhiiiihhhhhhiiihiiiiihhhiiiijjkkmnllnnnnn.mmmmnnnnmmmmnnmmlklllllklllll.mllmmllkjiijjihhi
(PID.TID 0000.0001)      8 eeeeeeeedefgggffeeffggffffggghiiiijjijklklkkkkkkkklllkkkkjjiiijkjjjjjjkj.kkjjiihggffffedde
(PID.TID 0000.0001)      7 cccccddeedddefeddddddddddefeefffffgggghiiiiiijjjihhgggghhhhhghhhhhhhiiiihiihhgfeddddddcccc
(PID.TID 0000.0001)      6 abbcccddcccccdddddccdddddddccddddddeeeeffggggghhgeddddddeeeeeeefggggghggggffeedccbbbbbbbba
(PID.TID 0000.0001)      5 bbbcccccccccccccccccccccbbccccdddddddcccddeeddeedcbbbbbbccccccdddeeeeeddddddccbbbbaaaaaaab
(PID.TID 0000.0001)      4 bbbbbbbaaabbbbbbbbbbbbaabbabbbbcbbbbbbbbbbbbbbbbbbbabbaaabbbbbbbbbbbbbbbbb..a--aaabbbaaabb
(PID.TID 0000.0001)      3 bbbbaaa-a-............................bbaaaaaaaaaaaaaaaaaaaaaaaaaaaaaaaab..aaaaaaaabbbaaaa
(PID.TID 0000.0001)      2 ..........................................baaaaaaaaaaaa-------aa..aaaa.....aaaaaaaaaaaa...
(PID.TID 0000.0001)      1 ..........................................................................................
(PID.TID 0000.0001) // =======================================================
(PID.TID 0000.0001) // END OF FIELD                                          =
(PID.TID 0000.0001) // =======================================================
(PID.TID 0000.0001) 
(PID.TID 0000.0001)  MDS_READ_FIELD: opening global file: lev_s.bin
(PID.TID 0000.0001) // =======================================================
(PID.TID 0000.0001) // Field Initial Salinity at iteration          1
(PID.TID 0000.0001) // CMIN =          2.975276947021484E+01
(PID.TID 0000.0001) // CMAX =          3.747562789916992E+01
(PID.TID 0000.0001) // CINT =          2.860317936650029E-01
(PID.TID 0000.0001) // SYMBOLS (CMIN->CMAX): -abcdefghijklmnopqrstuvwxyz+
(PID.TID 0000.0001) //                  0.0: .
(PID.TID 0000.0001) // RANGE I (Lo:Hi:Step):(   1:  90:   1)
(PID.TID 0000.0001) // RANGE J (Lo:Hi:Step):(  40:   1:  -1)
(PID.TID 0000.0001) // RANGE K (Lo:Hi:Step):(   1:   1:   1)
(PID.TID 0000.0001) // =======================================================
(PID.TID 0000.0001) K =   1
(PID.TID 0000.0001)                I=10      I=20      I=30      I=40      I=50      I=60      I=70      I=80      I=90
(PID.TID 0000.0001) |--J--|123456789|123456789|123456789|123456789|123456789|123456789|123456789|123456789|123456789|
(PID.TID 0000.0001)     40 qrrrr.oonnooopqtutt..................................................................mnnop
(PID.TID 0000.0001)     39 rssrrrrrrrqqpn...ut.....................................................mmmm........opqqqr
(PID.TID 0000.0001)     38 ssrrqqqqrrqpo...........................................................lkkll......onoqrrs
(PID.TID 0000.0001)     37 ssr..................................................................hg...lln...qppqr.rrrs
(PID.TID 0000.0001)     36 rr.........................................lkji....................feeegikmoop.pqrssssssss
(PID.TID 0000.0001)     35 rr.................................kkkk..lllllki...jijjj...........aa-....opqrrrrrrrssttss
(PID.TID 0000.0001)     34 ...................................jlll.kklllllk.ijkkkjih..................hlpqrqrrsstts..
(PID.TID 0000.0001)     33 ....................................iklkkkkkkkkkjkkjjjjjjii.................jmprrsstttttt.
(PID.TID 0000.0001)     32 ....................................iklllkllllllllkkkkkkkji................gilpstuuttuuut.
(PID.TID 0000.0001)     31 ....................................lmnonnnnoooonnmmmmllkjj..............loopqtvvvuuuuuu..
(PID.TID 0000.0001)     30 ...................................pppppppqqqqpppoooonnmlkk............ptvxwwvvwvvvvvvvu..
(PID.TID 0000.0001)     29 .................................pqqrqqqqqqrrrqqppqqqpponmll...........vxxxxxxwwwwwxwwxw..
(PID.TID 0000.0001)     28 ...............................prrrrrqqrrrrrsrrsrssssssrqonmm.........wxxxxxxxyyyyyyyyxx..
(PID.TID 0000.0001)     27 ..............xx..............prrrrrrrrrssssssstttssssssrqpoop...uwww.wwxxxyyy++zzzzyy....
(PID.TID 0000.0001)     26 ..............wxx...........ppqrrrrrrsssrrstsstttssrrrrrrrqppqqp.wwwvvwwwwwxyy+++zzyxw....
(PID.TID 0000.0001)     25 ..............wxxv...kkk...ooopqrrrrrssrrrrrrrssssqqpppppppppppoo...vvutuuvvwxyyyxxvvu....
(PID.TID 0000.0001)     24 ............uvvwwur.lmlk...nmm.pqqqqrrrrrqqqqrrqqrpppppooooonmmmnooo.uuuuuuttuvvvuvuut....
(PID.TID 0000.0001)     23 ............vvuvtqp.lmml...mln..ppppqpqppppppqpppppppppqppponnnnnoopm....xvuuuvvvvuuut....
(PID.TID 0000.0001)     22 r...........vuttsqqpnppn...mm.oppqqrrqqqqqqppppqqrrrqqqrrppppoopooomjj......uuvvvvvuttssrr
(PID.TID 0000.0001)     21 qmm........ttsssssssrsqon.....opqqqqqqqrrrrqqqssssssrrrrrrrrpqqqppomll........tvvvvuttssrr
(PID.TID 0000.0001)     20 sqq.......sttssrrsrrrrpol......p.qrqpqrrrrrrrstttttsssrrsssrqrrrrqqqpo.........wwwvvvuuutt
(PID.TID 0000.0001)     19 tsr.......ssssrrrrpppppnmmm...oqq.....qrqqsrrstttuuuttssttssrrssrrrrqq...........wwwvuvvvv
(PID.TID 0000.0001)     18 wut.......ssrrrrrqppppppppoooorrr...poqqqprrrttttuuutuuuuuutttttttutsss..........yyxwwxwxx
(PID.TID 0000.0001)     17 wwu.......s.rrrrrrqppppqqqqqqqr.....rrsrqrsssuusrtuuuvvvwwvvvuuuuutttss.........xyzyyyyxxx
(PID.TID 0000.0001)     16 vvt......ss.qrrssrqrqpqrrrrrrr.......ssrrstsstusrsuuuvwwwwxxwwvvvuttttsr........yz+zzzxwww
(PID.TID 0000.0001)     15 utss....stt.rrssstttsrrsrstsr.........ssstttssttsuuttuvvvvwxwwwwwuttsssrr......xyyyyxyyxwv
(PID.TID 0000.0001)     14 utts....sstrrssstuuuuuuuuuutt.........stttuutttttttuttttttuvvvvvvutsrqrrr.....vxxwwwwxwvwv
(PID.TID 0000.0001)     13 uuut....ttttttttuuuuuvtuuuuuu.........ttttuutttttttuutsssstttttstsqrqqppp....uwwwvuvvvutvv
(PID.TID 0000.0001)     12 ttttttttttttttttttttttssuuuuutuuut....tttttttttttsssssrrrrrrrqqqqqppppoo.....rvvuuttttttuu
(PID.TID 0000.0001)     11 rqsttttttttuuttttsssssrrstttttttsss..ttttts.tsssrrrrqqqqqppppoonnooooooo....oruttttsssrqrs
(PID.TID 0000.0001)     10 pppqrssrqqrqpqrssrrqqqqqqrrrrrrrrrrs.sssssr.rssrrqqpppppppooooonnnoooonn..moqrrrqqqqqqqqqq
(PID.TID 0000.0001)      9 oonooooooooonnnooooooooooppppppqqqqqrrrqrq.pppqqqqqppppppppppoooooooooll.lmoqqqqppooooopoo
(PID.TID 0000.0001)      8 nnnoonooooooonnnnnnnoooonoonoooppopqqqqqqqppopppqqqpppppppppppppppooopon.lnopppoooonnnnooo
(PID.TID 0000.0001)      7 ooooooooooopponnnooooooonnnnnonnooooooooopppppppoooooooooopppppppppoopqnnmnoooonnnonnnnnno
(PID.TID 0000.0001)      6 oooonnoonnnnooooooooooooonnnnnnnnnnnnnnnnoooopppooooooooooooooppppppppppoooooooonnnnnmnnnn
(PID.TID 0000.0001)      5 oooonnnnnnnnnnnnnnnnnoooooonnnnnnonnnnnnnnnoooooooooooonnnnnnooooooopoooonoooonnnnnnnooooo
(PID.TID 0000.0001)      4 oooonnnooonnnnnnnnnnnnnnoooooonnnooooonnnooooooooppponnnnmmmnnnnmnnoonnnnn..nnnooooooooooo
(PID.TID 0000.0001)      3 ooonnnnnnn............................nnoooooonnooooonnnnnnnoonnnnnnnnmmm..ooopooooooooooo
(PID.TID 0000.0001)      2 ..........................................pppooooonnnnnnoooppppo..nnnn.....qqqpppoooooo...
(PID.TID 0000.0001)      1 ..........................................................................................
(PID.TID 0000.0001) // =======================================================
(PID.TID 0000.0001) // END OF FIELD                                          =
(PID.TID 0000.0001) // =======================================================
(PID.TID 0000.0001) 
(PID.TID 0000.0001) Start initial hydrostatic pressure computation
(PID.TID 0000.0001) Pressure is predetermined for buoyancyRelation OCEANIC
(PID.TID 0000.0001) 
(PID.TID 0000.0001)  MDS_READ_FIELD: opening global file: trenberth_taux.bin
(PID.TID 0000.0001)  MDS_READ_FIELD: opening global file: trenberth_tauy.bin
(PID.TID 0000.0001)  MDS_READ_FIELD: opening global file: ncep_qnet.bin
(PID.TID 0000.0001)  MDS_READ_FIELD: opening global file: lev_sst.bin
(PID.TID 0000.0001)  MDS_READ_FIELD: opening global file: lev_sss.bin
(PID.TID 0000.0001) // =======================================================
(PID.TID 0000.0001) // Model current state
(PID.TID 0000.0001) // =======================================================
(PID.TID 0000.0001) 
S/R EXTERNAL_FIELDS_LOAD: Reading new data:   12    1         0  0.000000000000E+00
(PID.TID 0000.0001)  MDS_READ_FIELD: opening global file: trenberth_taux.bin
(PID.TID 0000.0001)  MDS_READ_FIELD: opening global file: trenberth_taux.bin
(PID.TID 0000.0001)  MDS_READ_FIELD: opening global file: trenberth_tauy.bin
(PID.TID 0000.0001)  MDS_READ_FIELD: opening global file: trenberth_tauy.bin
(PID.TID 0000.0001)  MDS_READ_FIELD: opening global file: ncep_qnet.bin
(PID.TID 0000.0001)  MDS_READ_FIELD: opening global file: ncep_qnet.bin
(PID.TID 0000.0001)  MDS_READ_FIELD: opening global file: lev_sst.bin
(PID.TID 0000.0001)  MDS_READ_FIELD: opening global file: lev_sst.bin
(PID.TID 0000.0001)  MDS_READ_FIELD: opening global file: lev_sss.bin
(PID.TID 0000.0001)  MDS_READ_FIELD: opening global file: lev_sss.bin
time,SST,SSS,fu,fv,Q,E-P,i0,i1,a,b =   0.0000E+00  5.3151E-02  3.4364E+01 -4.0500E-02 -6.3753E-02  2.6510E+02  0.0000E+00    12     1  5.0000E-01  5.0000E-01
time,fu0,fu1,fu =   0.0000E+00 -4.5368E-02 -3.5633E-02 -4.0500E-02  5.000000000000000E-01  5.000000000000000E-01
(PID.TID 0000.0001)  MDS_READ_FIELD: opening file: xx_hfluxm.0000000000.001.001.data
 cg2d: Sum(rhs),rhsMax =   1.47867829092263E-14  2.54952604282385E+00
time,SST,SSS,fu,fv,Q,E-P,i0,i1,a,b =   8.6400E+04  1.1350E-01  3.4387E+01 -4.0176E-02 -6.3320E-02  2.6514E+02  0.0000E+00    12     1  5.3333E-01  4.6667E-01
time,fu0,fu1,fu =   8.6400E+04 -4.5368E-02 -3.5633E-02 -4.0176E-02  5.333333333333333E-01  4.666666666666667E-01
 cg2d: Sum(rhs),rhsMax =   1.11299858218672E-14  2.62443215722193E+00
time,SST,SSS,fu,fv,Q,E-P,i0,i1,a,b =   1.7280E+05  1.7385E-01  3.4410E+01 -3.9851E-02 -6.2886E-02  2.6519E+02  0.0000E+00    12     1  5.6667E-01  4.3333E-01
time,fu0,fu1,fu =   1.7280E+05 -4.5368E-02 -3.5633E-02 -3.9851E-02  5.666666666666667E-01  4.333333333333333E-01
 cg2d: Sum(rhs),rhsMax =   2.85049761572509E-14  2.39923446838053E+00
time,SST,SSS,fu,fv,Q,E-P,i0,i1,a,b =   2.5920E+05  2.3421E-01  3.4434E+01 -3.9527E-02 -6.2453E-02  2.6523E+02  0.0000E+00    12     1  6.0000E-01  4.0000E-01
time,fu0,fu1,fu =   2.5920E+05 -4.5368E-02 -3.5633E-02 -3.9527E-02  6.000000000000000E-01  4.000000000000000E-01
 cg2d: Sum(rhs),rhsMax =   1.22540866343002E-14  2.21574359140525E+00
time,SST,SSS,fu,fv,Q,E-P,i0,i1,a,b =   3.4560E+05  2.9456E-01  3.4457E+01 -3.9202E-02 -6.2020E-02  2.6528E+02  0.0000E+00    12     1  6.3333E-01  3.6667E-01
time,fu0,fu1,fu =   3.4560E+05 -4.5368E-02 -3.5633E-02 -3.9202E-02  6.333333333333333E-01  3.666666666666667E-01
 cg2d: Sum(rhs),rhsMax =   3.18634008067420E-14  2.00995911926375E+00
time,SST,SSS,fu,fv,Q,E-P,i0,i1,a,b =   4.3200E+05  3.5491E-01  3.4481E+01 -3.8878E-02 -6.1587E-02  2.6532E+02  0.0000E+00    12     1  6.6667E-01  3.3333E-01
time,fu0,fu1,fu =   4.3200E+05 -4.5368E-02 -3.5633E-02 -3.8878E-02  6.666666666666666E-01  3.333333333333334E-01
 cg2d: Sum(rhs),rhsMax =   6.85562717706034E-14  1.78612610483611E+00
time,SST,SSS,fu,fv,Q,E-P,i0,i1,a,b =   5.1840E+05  4.1526E-01  3.4504E+01 -3.8553E-02 -6.1154E-02  2.6537E+02  0.0000E+00    12     1  7.0000E-01  3.0000E-01
time,fu0,fu1,fu =   5.1840E+05 -4.5368E-02 -3.5633E-02 -3.8553E-02  7.000000000000000E-01  3.000000000000000E-01
 cg2d: Sum(rhs),rhsMax =  -4.42562653191203E-14  1.55419822189927E+00
time,SST,SSS,fu,fv,Q,E-P,i0,i1,a,b =   6.0480E+05  4.7561E-01  3.4527E+01 -3.8229E-02 -6.0721E-02  2.6541E+02  0.0000E+00    12     1  7.3333E-01  2.6667E-01
time,fu0,fu1,fu =   6.0480E+05 -4.5368E-02 -3.5633E-02 -3.8229E-02  7.333333333333333E-01  2.666666666666667E-01
 cg2d: Sum(rhs),rhsMax =  -5.59691182289157E-14  1.32823755866058E+00
time,SST,SSS,fu,fv,Q,E-P,i0,i1,a,b =   6.9120E+05  5.3596E-01  3.4551E+01 -3.7904E-02 -6.0288E-02  2.6546E+02  0.0000E+00    12     1  7.6667E-01  2.3333E-01
time,fu0,fu1,fu =   6.9120E+05 -4.5368E-02 -3.5633E-02 -3.7904E-02  7.666666666666667E-01  2.333333333333333E-01
 cg2d: Sum(rhs),rhsMax =   1.60982338570648E-14  1.15613808756955E+00
time,SST,SSS,fu,fv,Q,E-P,i0,i1,a,b =   7.7760E+05  5.9632E-01  3.4574E+01 -3.7580E-02 -5.9855E-02  2.6550E+02  0.0000E+00    12     1  8.0000E-01  2.0000E-01
time,fu0,fu1,fu =   7.7760E+05 -4.5368E-02 -3.5633E-02 -3.7580E-02  8.000000000000000E-01  2.000000000000000E-01
 cg2d: Sum(rhs),rhsMax =   4.49085213460876E-14  1.08384893696038E+00
(PID.TID 0000.0001) %CHECKPOINT        10 ckptB
(PID.TID 0000.0001)  MDS_READ_FIELD: opening global file: lev_t_an.bin
 --> objf_test(bi,bj)   =  0.000000000000000E+00
 --> objf_tracer(bi,bj) =  0.000000000000000E+00
 --> objf_atl(bi,bj)    =  0.000000000000000E+00
 --> objf_temp_tut(bi,bj)   =  0.620487580436417E+01
 --> objf_hflux_tut(bi,bj) =  0.313106895974920E-08
  local fc =  0.620487581062631E+01
 global fc =  0.620487581062631E+01
(PID.TID 0000.0001)  MDS_READ_FIELD: opening file: xx_hfluxm.0000000000.001.001.data
grad-res -------------------------------
 grad-res     0    1   76   27    1    1    1    1   0.620487645063E+01 0.620487710303E+01 0.620487581063E+01
 grad-res     0    1    1 1872 2315    1    1    1   0.646200194271E-05 0.646200092991E-05 0.156731925216E-06
(PID.TID 0000.0001)   ADM  precision_derivative_cost =    6.20487645062633E+00
(PID.TID 0000.0001)   ADM  precision_derivative_grad =    6.46200194270968E-06
 ph-grd  ierr ---------------------------
 ph-grd  ierr =  0, icomp =  1872, ichknum =  1
 ph-grd -->hit<--  77 27 1 1
(PID.TID 0000.0001)  MDS_READ_FIELD: opening file: adxx_hfluxm.0000000000.001.001.data
(PID.TID 0000.0001)  MDS_READ_FIELD: opening file: xx_hfluxm.0000000000.001.001.data
(PID.TID 0000.0001)  MDS_READ_FIELD: opening global file: bathymetry.bin
(PID.TID 0000.0001) // =======================================================
(PID.TID 0000.0001) // Field Model R_low (ini_masks_etc) at iteration          1
(PID.TID 0000.0001) // CMIN =         -5.200000000000000E+03
(PID.TID 0000.0001) // CMAX =         -1.200000000000000E+02
(PID.TID 0000.0001) // CINT =          1.881481481481482E+02
(PID.TID 0000.0001) // SYMBOLS (CMIN->CMAX): -abcdefghijklmnopqrstuvwxyz+
(PID.TID 0000.0001) //                  0.0: .
(PID.TID 0000.0001) // RANGE I (Lo:Hi:Step):(  -1:  92:   1)
(PID.TID 0000.0001) // RANGE J (Lo:Hi:Step):(  42:  -1:  -1)
(PID.TID 0000.0001) // RANGE K (Lo:Hi:Step):(   1:   1:   1)
(PID.TID 0000.0001) // =======================================================
(PID.TID 0000.0001) K =   1
(PID.TID 0000.0001) //                I=8       I=18      I=28      I=38      I=48      I=58      I=68      I=78      I=88
(PID.TID 0000.0001) // |--J--|101234567|901234567|901234567|901234567|901234567|901234567|901234567|901234567|901234567|9012
(PID.TID 0000.0001) //     42 ............................................zyxxmgfeeefefgimnpwwwy..+zyy.....yyyyoiiihhz+.....
(PID.TID 0000.0001) //     41 ..............................................................................................
(PID.TID 0000.0001) //     40 qlloqz+.++++zzz++++++..................................................................+++qllo
(PID.TID 0000.0001) //     39 slloorzzzzzzzzz+...++.....................................................yxxz........+zvusllo
(PID.TID 0000.0001) //     38 mqpporzzzzzz+++...........................................................zxxy+......zyyvsmqpp
(PID.TID 0000.0001) //     37 mmmuz..................................................................++...zy+...yttyy.+smmmu
(PID.TID 0000.0001) //     36 utt+.........................................mm++....................+++++++znmm.yoowssvuyutt+
(PID.TID 0000.0001) //     35 ++++.................................+zzz..rrmmkk+...+gghn...........+++....+nmiijlsoopuww++++
(PID.TID 0000.0001) //     34 .....................................+vvy.ggqyxv+y.ccdffhim..................+nihhikkihhm+....
(PID.TID 0000.0001) //     33 +.....................................uuz---h------aaabdefin+.................zqvddflifffw+...
(PID.TID 0000.0001) //     32 +.....................................+t----h---------acdfgnn................+++gdffkofffm+...
(PID.TID 0000.0001) //     31 ......................................-----ad--------abddegil..............qbaafccdhqqgddm....
(PID.TID 0000.0001) //     30 .....................................f----b--b------------abd............zfbb--fbcdosjfddi....
(PID.TID 0000.0001) //     29 ...................................tu----e---fjg----------abdf...........eaac--abfmijaadgi....
(PID.TID 0000.0001) //     28 .................................+xfl-------------------bdedefi.........qbaa---aemfbbaaejz....
(PID.TID 0000.0001) //     27 ................xx..............+wfgfpf--------eallc---bbbccefgi...+++x.qb-----akfa---ah......
(PID.TID 0000.0001) //     26 ................xnn...........+vd---dna------a--aicfna---aabdfghku.++xssuy-----bgca---ci......
(PID.TID 0000.0001) //     25 ................iiik...oo+...+ivd---doaa-bc--ilglf--aa---aabcghhkll...ssum+xaaacjbaabdjk......
(PID.TID 0000.0001) //     24 ..............xnheeft.kkk+...uii.aagdm----aa-----a-------bbbcdefjljjju.zummwwbbchba--abi......
(PID.TID 0000.0001) //     23 ..............xgheefp.iikw...uuw..fihi----fed-----eaaa--bbbbcdfflkjiiiq....zykccefa--abd......
(PID.TID 0000.0001) //     22 uss...........bbelffslffkk...zz.wqkeeqoheccdfa-----egabaabcdddegghliiiqq......xeeehheehccquss.
(PID.TID 0000.0001) //     21 bbeir........nbbcdjhqdddiiz.....wqfeelgghmedea-----bibbcddddddefghklnqoo........ieeflhgcccbbei
(PID.TID 0000.0001) //     20 bbder.......ldcccdgkccccidd......z.vkkktqqhegg----aaacddddddddefghkiiijl.........nhfa--gfcbbde
(PID.TID 0000.0001) //     19 cdaaf.......kddosggpaaaibbccx...+z+.....r+nlec---agaaabcddccddefikfgffff...........d---cjhcdaa
(PID.TID 0000.0001) //     18 d---d.......kglggvliaaaibbcaaeaiv++...qqzolhecccfdgkaabcdfccdeeikgfgffdd+..........d---djhd---
(PID.TID 0000.0001) //     17 c---c.......l.feewlfaaaoaa----aiv.....qqnllslmlofcdbaacceffffhhligfigeddj.........hd---ckhc---
(PID.TID 0000.0001) //     16 ba--c......tn.ddgnlfdaaqa-----lv.......vnllvllnwv--accivomfffhilhgfffeddjf........re--aeigba--
(PID.TID 0000.0001) //     15 b--dpz....+ll.ccdfhmdddlc----av.........otsxoomv---abccddfihgijkhgfffeejfff......+fd---ckfb--d
(PID.TID 0000.0001) //     14 c--mcl....weeqbaafilkfend--eagy.........hhstofft----aacdheefijkmjhhjijiffff.....zlfdaaadlfc--m
(PID.TID 0000.0001) //     13 cclbbg....nccobaaiddgkffqrqeaal.........eeutqfft------aaceeffhijlkjhhigfffq....+jgfodccflhcclb
(PID.TID 0000.0001) //     12 hgaaacw+iiicclemhdddfliigfdcaabfaaaz....ccsurqpc--------abcifffikiiihhggff.....kbbbdfffglhhgaa
(PID.TID 0000.0001) //     11 gcaaacbbifccennhbbdefnihgfdccaaaa----..dcccnt.ncab-------aabcdfilhggjiggff....l---abcefjlkgcaa
(PID.TID 0000.0001) //     10 fcaaccbdaacfrllfbbdegkmmljhfdddba----d.dcccfx.nyrebaba----abcdgilhfeegijgi..+w--aa-abcfilkfcaa
(PID.TID 0000.0001) //      9 ffcdcccaaaoqsolfdeehikihhlllgfedcccccdmdcccf.vyfaaaaaaaa--abdehmjhfeeefglv.++w-----abcdfklffcd
(PID.TID 0000.0001) //      8 iffjklcaafddffeeccvznkfffhhhlkjifgjkkfeeddfsyvcaaaaaaccdcccdfgjligedbbceg+.++xffn--cfddefliffj
(PID.TID 0000.0001) //      7 mqnnbbkkf--bmbaabbgtykfddeffeeddccdfhlffeelfbaaaaaacddeghgjgjlligeddaaabedfiiiiiisvkfkecchmqnn
(PID.TID 0000.0001) //      6 ca-------------aabcelttdddedddddccccdfkkiiffbaaaabcdgimmkmefecaaabbbaaabbdfiiiiispmmregifcca--
(PID.TID 0000.0001) //      5 -------a-------aaccehhhiddeddddddcccdfiikomodddefffmlmigedccaaaaaaaababbbdfiijsqgeccccbaa-----
(PID.TID 0000.0001) //      4 -ahebaabbbbbeihffgijiiiijpywnnpokkomkiiijmmmolkommmgffeeedccaaaaaabbcccefhmz..yjgeccccbaa--ahe
(PID.TID 0000.0001) //      3 ffhhrpjiiwyy............................yxotmjjjjgfeeeeeeddeffffheddeghjkyy..yqjgeddccdbbgffhh
(PID.TID 0000.0001) //      2 ............................................zyxxmgfeeefefgimnpwwwy..+zyy.....yyyyoiiihhz+.....
(PID.TID 0000.0001) //      1 ..............................................................................................
(PID.TID 0000.0001) //      0 qlloqz+.++++zzz++++++..................................................................+++qllo
(PID.TID 0000.0001) //     -1 slloorzzzzzzzzz+...++.....................................................yxxz........+zvusllo
(PID.TID 0000.0001) // =======================================================
(PID.TID 0000.0001) // END OF FIELD                                          =
(PID.TID 0000.0001) // =======================================================
(PID.TID 0000.0001) 
(PID.TID 0000.0001) // =======================================================
(PID.TID 0000.0001) // Field Model Ro_surf (ini_masks_etc) at iteration          1
(PID.TID 0000.0001) // CMIN =          1.000000000000000E+32
(PID.TID 0000.0001) // CMAX =         -1.000000000000000E+32
(PID.TID 0000.0001) // CINT =          0.000000000000000E+00
(PID.TID 0000.0001) // SYMBOLS (CMIN->CMAX): -abcdefghijklmnopqrstuvwxyz+
(PID.TID 0000.0001) //                  0.0: .
(PID.TID 0000.0001) // RANGE I (Lo:Hi:Step):(  -1:  92:   1)
(PID.TID 0000.0001) // RANGE J (Lo:Hi:Step):(  42:  -1:  -1)
(PID.TID 0000.0001) // RANGE K (Lo:Hi:Step):(   1:   1:   1)
(PID.TID 0000.0001) // =======================================================
(PID.TID 0000.0001) // =======================================================
(PID.TID 0000.0001) // END OF FIELD                                          =
(PID.TID 0000.0001) // =======================================================
(PID.TID 0000.0001) 
(PID.TID 0000.0001) // =======================================================
(PID.TID 0000.0001) // Field hFacC at iteration          1
(PID.TID 0000.0001) // CMIN =          1.000000000000000E+00
(PID.TID 0000.0001) // CMAX =          1.000000000000000E+00
(PID.TID 0000.0001) // CINT =          0.000000000000000E+00
(PID.TID 0000.0001) // SYMBOLS (CMIN->CMAX): -abcdefghijklmnopqrstuvwxyz+
(PID.TID 0000.0001) //                  0.0: .
(PID.TID 0000.0001) // RANGE I (Lo:Hi:Step):(  -1:  92:   1)
(PID.TID 0000.0001) // RANGE J (Lo:Hi:Step):(  42:  -1:  -1)
(PID.TID 0000.0001) // RANGE K (Lo:Hi:Step):(   1:   1:   1)
(PID.TID 0000.0001) // =======================================================
(PID.TID 0000.0001) // =======================================================
(PID.TID 0000.0001) // END OF FIELD                                          =
(PID.TID 0000.0001) // =======================================================
(PID.TID 0000.0001) 
(PID.TID 0000.0001) // =======================================================
(PID.TID 0000.0001) // Field hFacW at iteration          1
(PID.TID 0000.0001) // CMIN =          1.000000000000000E+00
(PID.TID 0000.0001) // CMAX =          1.000000000000000E+00
(PID.TID 0000.0001) // CINT =          0.000000000000000E+00
(PID.TID 0000.0001) // SYMBOLS (CMIN->CMAX): -abcdefghijklmnopqrstuvwxyz+
(PID.TID 0000.0001) //                  0.0: .
(PID.TID 0000.0001) // RANGE I (Lo:Hi:Step):(  -1:  92:   1)
(PID.TID 0000.0001) // RANGE J (Lo:Hi:Step):(  42:  -1:  -1)
(PID.TID 0000.0001) // RANGE K (Lo:Hi:Step):(   1:   1:   1)
(PID.TID 0000.0001) // =======================================================
(PID.TID 0000.0001) // =======================================================
(PID.TID 0000.0001) // END OF FIELD                                          =
(PID.TID 0000.0001) // =======================================================
(PID.TID 0000.0001) 
(PID.TID 0000.0001) // =======================================================
(PID.TID 0000.0001) // Field hFacS at iteration          1
(PID.TID 0000.0001) // CMIN =          1.000000000000000E+00
(PID.TID 0000.0001) // CMAX =          1.000000000000000E+00
(PID.TID 0000.0001) // CINT =          0.000000000000000E+00
(PID.TID 0000.0001) // SYMBOLS (CMIN->CMAX): -abcdefghijklmnopqrstuvwxyz+
(PID.TID 0000.0001) //                  0.0: .
(PID.TID 0000.0001) // RANGE I (Lo:Hi:Step):(  -1:  92:   1)
(PID.TID 0000.0001) // RANGE J (Lo:Hi:Step):(  42:  -1:  -1)
(PID.TID 0000.0001) // RANGE K (Lo:Hi:Step):(   1:   1:   1)
(PID.TID 0000.0001) // =======================================================
(PID.TID 0000.0001) // =======================================================
(PID.TID 0000.0001) // END OF FIELD                                          =
(PID.TID 0000.0001) // =======================================================
(PID.TID 0000.0001) 
(PID.TID 0000.0001) %MON surfExpanfCori_max           =   1.4265546244797E-04
(PID.TID 0000.0001) %MON surfExpanfCori_min           =  -1.4265546244797E-04
(PID.TID 0000.0001) %MON surfExpanfCori_mean          =  -1.2347858075529E-21
(PID.TID 0000.0001) %MON surfExpanfCori_sd            =   9.6599226301547E-05
(PID.TID 0000.0001) %MON surfExpanfCoriG_max          =   1.4151032568025E-04
(PID.TID 0000.0001) %MON surfExpanfCoriG_min          =  -1.4362679550910E-04
(PID.TID 0000.0001) %MON surfExpanfCoriG_mean         =  -3.5906698877274E-06
(PID.TID 0000.0001) %MON surfExpanfCoriG_sd           =   9.6548915696244E-05
(PID.TID 0000.0001) %MON surfExpanfCoriCos_max        =   1.4575362704741E-04
(PID.TID 0000.0001) %MON surfExpanfCoriCos_min        =   3.0322354601388E-05
(PID.TID 0000.0001) %MON surfExpanfCoriCos_mean       =   1.0288600773632E-04
(PID.TID 0000.0001) %MON surfExpanfCoriCos_sd         =   3.6784304327266E-05
(PID.TID 0000.0001) INI_CG2D: CG2D normalisation factor =  6.5682677425711703E-05
(PID.TID 0000.0001) 
(PID.TID 0000.0001)  MDS_READ_FIELD: opening global file: lev_t.bin
(PID.TID 0000.0001) // =======================================================
(PID.TID 0000.0001) // Field Initial Temperature at iteration          1
(PID.TID 0000.0001) // CMIN =         -1.900000000000000E+00
(PID.TID 0000.0001) // CMAX =          2.973338890075684E+01
(PID.TID 0000.0001) // CINT =          1.171606996324327E+00
(PID.TID 0000.0001) // SYMBOLS (CMIN->CMAX): -abcdefghijklmnopqrstuvwxyz+
(PID.TID 0000.0001) //                  0.0: .
(PID.TID 0000.0001) // RANGE I (Lo:Hi:Step):(   1:  90:   1)
(PID.TID 0000.0001) // RANGE J (Lo:Hi:Step):(  40:   1:  -1)
(PID.TID 0000.0001) // RANGE K (Lo:Hi:Step):(   1:   1:   1)
(PID.TID 0000.0001) // =======================================================
(PID.TID 0000.0001) K =   1
(PID.TID 0000.0001)                I=10      I=20      I=30      I=40      I=50      I=60      I=70      I=80      I=90
(PID.TID 0000.0001) |--J--|123456789|123456789|123456789|123456789|123456789|123456789|123456789|123456789|123456789|
(PID.TID 0000.0001)     40 bccdd.baa----abdedd..................................................................bbbbb
(PID.TID 0000.0001)     39 ccdddddccbbbaa...ed.....................................................----........bbbbbb
(PID.TID 0000.0001)     38 fffgfedeedddc...........................................................-----......cbbbcde
(PID.TID 0000.0001)     37 ghh..................................................................bc...bbc...edeed.defg
(PID.TID 0000.0001)     36 hh.........................................ddcb....................dcccbabccdd.eefghhihhih
(PID.TID 0000.0001)     35 hh.................................aaab..dddeddd...ffggg...........ccc....ddeeeffghijjjjih
(PID.TID 0000.0001)     34 ...................................babb.deeeeeee.ffffgghh..................ccdffghijkkkj..
(PID.TID 0000.0001)     33 ....................................accdddeeeeefffffgghhiii.................bcfijkkllllkk.
(PID.TID 0000.0001)     32 ....................................bdddeffgffgghhhhhiiijjj................dccglmnmmmmlll.
(PID.TID 0000.0001)     31 ....................................fghiiiijjjjjjkkkkklllkk..............ikkjjmooooonnmm..
(PID.TID 0000.0001)     30 ...................................mmmnmmmmmmmmmmmmmnnnnnmm............moqrrrqrqqqpppooo..
(PID.TID 0000.0001)     29 .................................pqqqqqpppppppppoppoppppponm...........ssssssrrrrrqqqqpp..
(PID.TID 0000.0001)     28 ...............................prssssrrrsssrrrrrrrrrrrrrqqpoo.........uttssstssrssrrrqqq..
(PID.TID 0000.0001)     27 ..............vv..............stuttuuuuutuuuuuuuuuuttttssrrqqq...stuu.vvvuuuuutttttsss....
(PID.TID 0000.0001)     26 ..............vvv...........uuvvvvvwwwwwwwwvvvvvvvvvuuutttsssttv.uuvxxwwwwwwvvvvuuttsr....
(PID.TID 0000.0001)     25 ..............wwwx...xxx...vvvxxxxxyyxxxxxxxxxwwwwwvvvvvuuuuuvwwx...xxxxxxwwwwwwvvutsr....
(PID.TID 0000.0001)     24 ............wwwwxyy.xxyy...wxx.yyyyyyyyyyyxxxxxxxxwwwwwwwvvwwxxyywww.xxxxxxxxxxwwwvvur....
(PID.TID 0000.0001)     23 ............xxxyyyz.xyyy...xxx..yyyyzzyyyyyyyyxxxxxxxxxwwwwwxxxwwwwwx....vwxxxxwwwwwvu....
(PID.TID 0000.0001)     22 w...........xxyyyzyyyyyz...xx.yyzzzzzzzzzzzzzyyzyyyyyyxxwwxxxxwvvvwwxw......yyyyxxxxxxwxxw
(PID.TID 0000.0001)     21 xxx........xxxxyyzzzzzzz+.....zyzzzzzzz++zzzzyyyyyyyyxxwvvwwwwvvvvvvvu........yyyyyyyyyxxx
(PID.TID 0000.0001)     20 xww.......xyyyyxyyzzzzzz+......z.zzzzz+++zzzzzzyyyyyxxxxwvwxwvuuuuuuut.........yyyyxxxxwww
(PID.TID 0000.0001)     19 vvv.......yyyyxwwxyzyyzzzzz...zzz.....++++++z++z+zzzyyyyxxxxwwvvvvvvvu...........yyxxxwwww
(PID.TID 0000.0001)     18 uut.......zzyyywwxyzyyyyzzyzzzzzz...z+z++++zz+++++++zzzyyyyxxwwwvvvvvtt..........yyxxwvvwv
(PID.TID 0000.0001)     17 uus.......z.yyyyyyxyzzyyyyyyyzz.....yzzzzzzzzzzzzzzzzzzyyyyxxwwvuuvvuut.........yyyxxwttvu
(PID.TID 0000.0001)     16 utr......yy.zyyyyxxxxxxxwxxxxy.......yyyyyyyyyyyyyyyyyyyyyyyxxwvvvuuutts........xyyyxwvuuu
(PID.TID 0000.0001)     15 ttrr....xxx.xxxwxwwwwvwwvvvww.........xwxxxxxxxxxxxxxxxxxyyyxwwwvvuttssrr......wxxxxxwwvuu
(PID.TID 0000.0001)     14 ttsq....xyxwwxwvwwwvutuuuuuuu.........wwvwwwwvwvvwwwvwvvwwwwwwvvvuuutssrr.....vwwwwwwwvvvu
(PID.TID 0000.0001)     13 tttr....wwwvvvtttuuuutttssttt.........vvvuuuuuuutttttuuuuuvwwwuuuttttssrr....uvvvvvvvvvvut
(PID.TID 0000.0001)     12 sssssstttutssssrrrrrstrqqrrssqqrrq....uuttssssrrrrrrrrrrrstttssssrssrrqp.....uuuttssttssss
(PID.TID 0000.0001)     11 poprsssrqqqqqrqppooopqpoppppppppppp..sssrrr.rqpppqqqqppppqqqoppqqqqrqqpp....prsrqqqqqppppq
(PID.TID 0000.0001)     10 lllmoooonmnnmnnnnmmmmmmlmmlllmnnnnon.qqqppp.ppppppooooooooonmnnnonnooooo..nmoponnmnnnnnmll
(PID.TID 0000.0001)      9 ihhiiiihhhhhhiiihiiiiihhhiiiijjkkmnllnnnnn.mmmmnnnnmmmmnnmmlklllllklllll.mllmmllkjiijjihhi
(PID.TID 0000.0001)      8 eeeeeeeedefgggffeeffggffffggghiiiijjijklklkkkkkkkklllkkkkjjiiijkjjjjjjkj.kkjjiihggffffedde
(PID.TID 0000.0001)      7 cccccddeedddefeddddddddddefeefffffgggghiiiiiijjjihhgggghhhhhghhhhhhhiiiihiihhgfeddddddcccc
(PID.TID 0000.0001)      6 abbcccddcccccdddddccdddddddccddddddeeeeffggggghhgeddddddeeeeeeefggggghggggffeedccbbbbbbbba
(PID.TID 0000.0001)      5 bbbcccccccccccccccccccccbbccccdddddddcccddeeddeedcbbbbbbccccccdddeeeeeddddddccbbbbaaaaaaab
(PID.TID 0000.0001)      4 bbbbbbbaaabbbbbbbbbbbbaabbabbbbcbbbbbbbbbbbbbbbbbbbabbaaabbbbbbbbbbbbbbbbb..a--aaabbbaaabb
(PID.TID 0000.0001)      3 bbbbaaa-a-............................bbaaaaaaaaaaaaaaaaaaaaaaaaaaaaaaaab..aaaaaaaabbbaaaa
(PID.TID 0000.0001)      2 ..........................................baaaaaaaaaaaa-------aa..aaaa.....aaaaaaaaaaaa...
(PID.TID 0000.0001)      1 ..........................................................................................
(PID.TID 0000.0001) // =======================================================
(PID.TID 0000.0001) // END OF FIELD                                          =
(PID.TID 0000.0001) // =======================================================
(PID.TID 0000.0001) 
(PID.TID 0000.0001)  MDS_READ_FIELD: opening global file: lev_s.bin
(PID.TID 0000.0001) // =======================================================
(PID.TID 0000.0001) // Field Initial Salinity at iteration          1
(PID.TID 0000.0001) // CMIN =          2.975276947021484E+01
(PID.TID 0000.0001) // CMAX =          3.747562789916992E+01
(PID.TID 0000.0001) // CINT =          2.860317936650029E-01
(PID.TID 0000.0001) // SYMBOLS (CMIN->CMAX): -abcdefghijklmnopqrstuvwxyz+
(PID.TID 0000.0001) //                  0.0: .
(PID.TID 0000.0001) // RANGE I (Lo:Hi:Step):(   1:  90:   1)
(PID.TID 0000.0001) // RANGE J (Lo:Hi:Step):(  40:   1:  -1)
(PID.TID 0000.0001) // RANGE K (Lo:Hi:Step):(   1:   1:   1)
(PID.TID 0000.0001) // =======================================================
(PID.TID 0000.0001) K =   1
(PID.TID 0000.0001)                I=10      I=20      I=30      I=40      I=50      I=60      I=70      I=80      I=90
(PID.TID 0000.0001) |--J--|123456789|123456789|123456789|123456789|123456789|123456789|123456789|123456789|123456789|
(PID.TID 0000.0001)     40 qrrrr.oonnooopqtutt..................................................................mnnop
(PID.TID 0000.0001)     39 rssrrrrrrrqqpn...ut.....................................................mmmm........opqqqr
(PID.TID 0000.0001)     38 ssrrqqqqrrqpo...........................................................lkkll......onoqrrs
(PID.TID 0000.0001)     37 ssr..................................................................hg...lln...qppqr.rrrs
(PID.TID 0000.0001)     36 rr.........................................lkji....................feeegikmoop.pqrssssssss
(PID.TID 0000.0001)     35 rr.................................kkkk..lllllki...jijjj...........aa-....opqrrrrrrrssttss
(PID.TID 0000.0001)     34 ...................................jlll.kklllllk.ijkkkjih..................hlpqrqrrsstts..
(PID.TID 0000.0001)     33 ....................................iklkkkkkkkkkjkkjjjjjjii.................jmprrsstttttt.
(PID.TID 0000.0001)     32 ....................................iklllkllllllllkkkkkkkji................gilpstuuttuuut.
(PID.TID 0000.0001)     31 ....................................lmnonnnnoooonnmmmmllkjj..............loopqtvvvuuuuuu..
(PID.TID 0000.0001)     30 ...................................pppppppqqqqpppoooonnmlkk............ptvxwwvvwvvvvvvvu..
(PID.TID 0000.0001)     29 .................................pqqrqqqqqqrrrqqppqqqpponmll...........vxxxxxxwwwwwxwwxw..
(PID.TID 0000.0001)     28 ...............................prrrrrqqrrrrrsrrsrssssssrqonmm.........wxxxxxxxyyyyyyyyxx..
(PID.TID 0000.0001)     27 ..............xx..............prrrrrrrrrssssssstttssssssrqpoop...uwww.wwxxxyyy++zzzzyy....
(PID.TID 0000.0001)     26 ..............wxx...........ppqrrrrrrsssrrstsstttssrrrrrrrqppqqp.wwwvvwwwwwxyy+++zzyxw....
(PID.TID 0000.0001)     25 ..............wxxv...kkk...ooopqrrrrrssrrrrrrrssssqqpppppppppppoo...vvutuuvvwxyyyxxvvu....
(PID.TID 0000.0001)     24 ............uvvwwur.lmlk...nmm.pqqqqrrrrrqqqqrrqqrpppppooooonmmmnooo.uuuuuuttuvvvuvuut....
(PID.TID 0000.0001)     23 ............vvuvtqp.lmml...mln..ppppqpqppppppqpppppppppqppponnnnnoopm....xvuuuvvvvuuut....
(PID.TID 0000.0001)     22 r...........vuttsqqpnppn...mm.oppqqrrqqqqqqppppqqrrrqqqrrppppoopooomjj......uuvvvvvuttssrr
(PID.TID 0000.0001)     21 qmm........ttsssssssrsqon.....opqqqqqqqrrrrqqqssssssrrrrrrrrpqqqppomll........tvvvvuttssrr
(PID.TID 0000.0001)     20 sqq.......sttssrrsrrrrpol......p.qrqpqrrrrrrrstttttsssrrsssrqrrrrqqqpo.........wwwvvvuuutt
(PID.TID 0000.0001)     19 tsr.......ssssrrrrpppppnmmm...oqq.....qrqqsrrstttuuuttssttssrrssrrrrqq...........wwwvuvvvv
(PID.TID 0000.0001)     18 wut.......ssrrrrrqppppppppoooorrr...poqqqprrrttttuuutuuuuuutttttttutsss..........yyxwwxwxx
(PID.TID 0000.0001)     17 wwu.......s.rrrrrrqppppqqqqqqqr.....rrsrqrsssuusrtuuuvvvwwvvvuuuuutttss.........xyzyyyyxxx
(PID.TID 0000.0001)     16 vvt......ss.qrrssrqrqpqrrrrrrr.......ssrrstsstusrsuuuvwwwwxxwwvvvuttttsr........yz+zzzxwww
(PID.TID 0000.0001)     15 utss....stt.rrssstttsrrsrstsr.........ssstttssttsuuttuvvvvwxwwwwwuttsssrr......xyyyyxyyxwv
(PID.TID 0000.0001)     14 utts....sstrrssstuuuuuuuuuutt.........stttuutttttttuttttttuvvvvvvutsrqrrr.....vxxwwwwxwvwv
(PID.TID 0000.0001)     13 uuut....ttttttttuuuuuvtuuuuuu.........ttttuutttttttuutsssstttttstsqrqqppp....uwwwvuvvvutvv
(PID.TID 0000.0001)     12 ttttttttttttttttttttttssuuuuutuuut....tttttttttttsssssrrrrrrrqqqqqppppoo.....rvvuuttttttuu
(PID.TID 0000.0001)     11 rqsttttttttuuttttsssssrrstttttttsss..ttttts.tsssrrrrqqqqqppppoonnooooooo....oruttttsssrqrs
(PID.TID 0000.0001)     10 pppqrssrqqrqpqrssrrqqqqqqrrrrrrrrrrs.sssssr.rssrrqqpppppppooooonnnoooonn..moqrrrqqqqqqqqqq
(PID.TID 0000.0001)      9 oonooooooooonnnooooooooooppppppqqqqqrrrqrq.pppqqqqqppppppppppoooooooooll.lmoqqqqppooooopoo
(PID.TID 0000.0001)      8 nnnoonooooooonnnnnnnoooonoonoooppopqqqqqqqppopppqqqpppppppppppppppooopon.lnopppoooonnnnooo
(PID.TID 0000.0001)      7 ooooooooooopponnnooooooonnnnnonnooooooooopppppppoooooooooopppppppppoopqnnmnoooonnnonnnnnno
(PID.TID 0000.0001)      6 oooonnoonnnnooooooooooooonnnnnnnnnnnnnnnnoooopppooooooooooooooppppppppppoooooooonnnnnmnnnn
(PID.TID 0000.0001)      5 oooonnnnnnnnnnnnnnnnnoooooonnnnnnonnnnnnnnnoooooooooooonnnnnnooooooopoooonoooonnnnnnnooooo
(PID.TID 0000.0001)      4 oooonnnooonnnnnnnnnnnnnnoooooonnnooooonnnooooooooppponnnnmmmnnnnmnnoonnnnn..nnnooooooooooo
(PID.TID 0000.0001)      3 ooonnnnnnn............................nnoooooonnooooonnnnnnnoonnnnnnnnmmm..ooopooooooooooo
(PID.TID 0000.0001)      2 ..........................................pppooooonnnnnnoooppppo..nnnn.....qqqpppoooooo...
(PID.TID 0000.0001)      1 ..........................................................................................
(PID.TID 0000.0001) // =======================================================
(PID.TID 0000.0001) // END OF FIELD                                          =
(PID.TID 0000.0001) // =======================================================
(PID.TID 0000.0001) 
(PID.TID 0000.0001) Start initial hydrostatic pressure computation
(PID.TID 0000.0001) Pressure is predetermined for buoyancyRelation OCEANIC
(PID.TID 0000.0001) 
(PID.TID 0000.0001)  MDS_READ_FIELD: opening global file: trenberth_taux.bin
(PID.TID 0000.0001)  MDS_READ_FIELD: opening global file: trenberth_tauy.bin
(PID.TID 0000.0001)  MDS_READ_FIELD: opening global file: ncep_qnet.bin
(PID.TID 0000.0001)  MDS_READ_FIELD: opening global file: lev_sst.bin
(PID.TID 0000.0001)  MDS_READ_FIELD: opening global file: lev_sss.bin
(PID.TID 0000.0001) // =======================================================
(PID.TID 0000.0001) // Model current state
(PID.TID 0000.0001) // =======================================================
(PID.TID 0000.0001) 
S/R EXTERNAL_FIELDS_LOAD: Reading new data:   12    1         0  0.000000000000E+00
(PID.TID 0000.0001)  MDS_READ_FIELD: opening global file: trenberth_taux.bin
(PID.TID 0000.0001)  MDS_READ_FIELD: opening global file: trenberth_taux.bin
(PID.TID 0000.0001)  MDS_READ_FIELD: opening global file: trenberth_tauy.bin
(PID.TID 0000.0001)  MDS_READ_FIELD: opening global file: trenberth_tauy.bin
(PID.TID 0000.0001)  MDS_READ_FIELD: opening global file: ncep_qnet.bin
(PID.TID 0000.0001)  MDS_READ_FIELD: opening global file: ncep_qnet.bin
(PID.TID 0000.0001)  MDS_READ_FIELD: opening global file: lev_sst.bin
(PID.TID 0000.0001)  MDS_READ_FIELD: opening global file: lev_sst.bin
(PID.TID 0000.0001)  MDS_READ_FIELD: opening global file: lev_sss.bin
(PID.TID 0000.0001)  MDS_READ_FIELD: opening global file: lev_sss.bin
time,SST,SSS,fu,fv,Q,E-P,i0,i1,a,b =   0.0000E+00  5.3151E-02  3.4364E+01 -4.0500E-02 -6.3753E-02  2.6510E+02  0.0000E+00    12     1  5.0000E-01  5.0000E-01
time,fu0,fu1,fu =   0.0000E+00 -4.5368E-02 -3.5633E-02 -4.0500E-02  5.000000000000000E-01  5.000000000000000E-01
(PID.TID 0000.0001)  MDS_READ_FIELD: opening file: xx_hfluxm.0000000000.001.001.data
 cg2d: Sum(rhs),rhsMax =   1.47867829092263E-14  2.54952604282385E+00
time,SST,SSS,fu,fv,Q,E-P,i0,i1,a,b =   8.6400E+04  1.1350E-01  3.4387E+01 -4.0176E-02 -6.3320E-02  2.6514E+02  0.0000E+00    12     1  5.3333E-01  4.6667E-01
time,fu0,fu1,fu =   8.6400E+04 -4.5368E-02 -3.5633E-02 -4.0176E-02  5.333333333333333E-01  4.666666666666667E-01
 cg2d: Sum(rhs),rhsMax =   1.11299858218672E-14  2.62443215722193E+00
time,SST,SSS,fu,fv,Q,E-P,i0,i1,a,b =   1.7280E+05  1.7385E-01  3.4410E+01 -3.9851E-02 -6.2886E-02  2.6519E+02  0.0000E+00    12     1  5.6667E-01  4.3333E-01
time,fu0,fu1,fu =   1.7280E+05 -4.5368E-02 -3.5633E-02 -3.9851E-02  5.666666666666667E-01  4.333333333333333E-01
 cg2d: Sum(rhs),rhsMax =  -2.00672811700997E-14  2.39923446842706E+00
time,SST,SSS,fu,fv,Q,E-P,i0,i1,a,b =   2.5920E+05  2.3421E-01  3.4434E+01 -3.9527E-02 -6.2453E-02  2.6523E+02  0.0000E+00    12     1  6.0000E-01  4.0000E-01
time,fu0,fu1,fu =   2.5920E+05 -4.5368E-02 -3.5633E-02 -3.9527E-02  6.000000000000000E-01  4.000000000000000E-01
 cg2d: Sum(rhs),rhsMax =   8.14626144318709E-15  2.21574359162780E+00
time,SST,SSS,fu,fv,Q,E-P,i0,i1,a,b =   3.4560E+05  2.9456E-01  3.4457E+01 -3.9202E-02 -6.2020E-02  2.6528E+02  0.0000E+00    12     1  6.3333E-01  3.6667E-01
time,fu0,fu1,fu =   3.4560E+05 -4.5368E-02 -3.5633E-02 -3.9202E-02  6.333333333333333E-01  3.666666666666667E-01
 cg2d: Sum(rhs),rhsMax =   2.89490653671010E-14  2.00995911982856E+00
time,SST,SSS,fu,fv,Q,E-P,i0,i1,a,b =   4.3200E+05  3.5491E-01  3.4481E+01 -3.8878E-02 -6.1587E-02  2.6532E+02  0.0000E+00    12     1  6.6667E-01  3.3333E-01
time,fu0,fu1,fu =   4.3200E+05 -4.5368E-02 -3.5633E-02 -3.8878E-02  6.666666666666666E-01  3.333333333333334E-01
 cg2d: Sum(rhs),rhsMax =   5.88695758807489E-14  1.78612610583388E+00
time,SST,SSS,fu,fv,Q,E-P,i0,i1,a,b =   5.1840E+05  4.1526E-01  3.4504E+01 -3.8553E-02 -6.1154E-02  2.6537E+02  0.0000E+00    12     1  7.0000E-01  3.0000E-01
time,fu0,fu1,fu =   5.1840E+05 -4.5368E-02 -3.5633E-02 -3.8553E-02  7.000000000000000E-01  3.000000000000000E-01
 cg2d: Sum(rhs),rhsMax =   3.40560912803767E-14  1.55419822330833E+00
time,SST,SSS,fu,fv,Q,E-P,i0,i1,a,b =   6.0480E+05  4.7561E-01  3.4527E+01 -3.8229E-02 -6.0721E-02  2.6541E+02  0.0000E+00    12     1  7.3333E-01  2.6667E-01
time,fu0,fu1,fu =   6.0480E+05 -4.5368E-02 -3.5633E-02 -3.8229E-02  7.333333333333333E-01  2.666666666666667E-01
 cg2d: Sum(rhs),rhsMax =  -1.83741910575463E-14  1.32823756038883E+00
time,SST,SSS,fu,fv,Q,E-P,i0,i1,a,b =   6.9120E+05  5.3596E-01  3.4551E+01 -3.7904E-02 -6.0288E-02  2.6546E+02  0.0000E+00    12     1  7.6667E-01  2.3333E-01
time,fu0,fu1,fu =   6.9120E+05 -4.5368E-02 -3.5633E-02 -3.7904E-02  7.666666666666667E-01  2.333333333333333E-01
 cg2d: Sum(rhs),rhsMax =  -2.77972089790524E-14  1.15613808773600E+00
time,SST,SSS,fu,fv,Q,E-P,i0,i1,a,b =   7.7760E+05  5.9632E-01  3.4574E+01 -3.7580E-02 -5.9855E-02  2.6550E+02  0.0000E+00    12     1  8.0000E-01  2.0000E-01
time,fu0,fu1,fu =   7.7760E+05 -4.5368E-02 -3.5633E-02 -3.7580E-02  8.000000000000000E-01  2.000000000000000E-01
 cg2d: Sum(rhs),rhsMax =   5.38458166943201E-14  1.08384893720373E+00
(PID.TID 0000.0001) %CHECKPOINT        10 ckptA
(PID.TID 0000.0001)  MDS_READ_FIELD: opening global file: lev_t_an.bin
 --> objf_test(bi,bj)   =  0.000000000000000E+00
 --> objf_tracer(bi,bj) =  0.000000000000000E+00
 --> objf_atl(bi,bj)    =  0.000000000000000E+00
 --> objf_temp_tut(bi,bj)   =  0.620487704470593E+01
 --> objf_hflux_tut(bi,bj) =  0.330079884976879E-08
  local fc =  0.620487705130753E+01
 global fc =  0.620487705130753E+01
 ph-check fcpertplus =   6.20487705
(PID.TID 0000.0001)  MDS_READ_FIELD: opening file: xx_hfluxm.0000000000.001.001.data
 ph-check fcpertminus =   6.20487645
(PID.TID 0000.0001)  MDS_READ_FIELD: opening file: xx_hfluxm.0000000000.001.001.data
(PID.TID 0000.0001)  MDS_READ_FIELD: opening global file: bathymetry.bin
(PID.TID 0000.0001) // =======================================================
(PID.TID 0000.0001) // Field Model R_low (ini_masks_etc) at iteration          1
(PID.TID 0000.0001) // CMIN =         -5.200000000000000E+03
(PID.TID 0000.0001) // CMAX =         -1.200000000000000E+02
(PID.TID 0000.0001) // CINT =          1.881481481481482E+02
(PID.TID 0000.0001) // SYMBOLS (CMIN->CMAX): -abcdefghijklmnopqrstuvwxyz+
(PID.TID 0000.0001) //                  0.0: .
(PID.TID 0000.0001) // RANGE I (Lo:Hi:Step):(  -1:  92:   1)
(PID.TID 0000.0001) // RANGE J (Lo:Hi:Step):(  42:  -1:  -1)
(PID.TID 0000.0001) // RANGE K (Lo:Hi:Step):(   1:   1:   1)
(PID.TID 0000.0001) // =======================================================
(PID.TID 0000.0001) K =   1
(PID.TID 0000.0001) //                I=8       I=18      I=28      I=38      I=48      I=58      I=68      I=78      I=88
(PID.TID 0000.0001) // |--J--|101234567|901234567|901234567|901234567|901234567|901234567|901234567|901234567|901234567|9012
(PID.TID 0000.0001) //     42 ............................................zyxxmgfeeefefgimnpwwwy..+zyy.....yyyyoiiihhz+.....
(PID.TID 0000.0001) //     41 ..............................................................................................
(PID.TID 0000.0001) //     40 qlloqz+.++++zzz++++++..................................................................+++qllo
(PID.TID 0000.0001) //     39 slloorzzzzzzzzz+...++.....................................................yxxz........+zvusllo
(PID.TID 0000.0001) //     38 mqpporzzzzzz+++...........................................................zxxy+......zyyvsmqpp
(PID.TID 0000.0001) //     37 mmmuz..................................................................++...zy+...yttyy.+smmmu
(PID.TID 0000.0001) //     36 utt+.........................................mm++....................+++++++znmm.yoowssvuyutt+
(PID.TID 0000.0001) //     35 ++++.................................+zzz..rrmmkk+...+gghn...........+++....+nmiijlsoopuww++++
(PID.TID 0000.0001) //     34 .....................................+vvy.ggqyxv+y.ccdffhim..................+nihhikkihhm+....
(PID.TID 0000.0001) //     33 +.....................................uuz---h------aaabdefin+.................zqvddflifffw+...
(PID.TID 0000.0001) //     32 +.....................................+t----h---------acdfgnn................+++gdffkofffm+...
(PID.TID 0000.0001) //     31 ......................................-----ad--------abddegil..............qbaafccdhqqgddm....
(PID.TID 0000.0001) //     30 .....................................f----b--b------------abd............zfbb--fbcdosjfddi....
(PID.TID 0000.0001) //     29 ...................................tu----e---fjg----------abdf...........eaac--abfmijaadgi....
(PID.TID 0000.0001) //     28 .................................+xfl-------------------bdedefi.........qbaa---aemfbbaaejz....
(PID.TID 0000.0001) //     27 ................xx..............+wfgfpf--------eallc---bbbccefgi...+++x.qb-----akfa---ah......
(PID.TID 0000.0001) //     26 ................xnn...........+vd---dna------a--aicfna---aabdfghku.++xssuy-----bgca---ci......
(PID.TID 0000.0001) //     25 ................iiik...oo+...+ivd---doaa-bc--ilglf--aa---aabcghhkll...ssum+xaaacjbaabdjk......
(PID.TID 0000.0001) //     24 ..............xnheeft.kkk+...uii.aagdm----aa-----a-------bbbcdefjljjju.zummwwbbchba--abi......
(PID.TID 0000.0001) //     23 ..............xgheefp.iikw...uuw..fihi----fed-----eaaa--bbbbcdfflkjiiiq....zykccefa--abd......
(PID.TID 0000.0001) //     22 uss...........bbelffslffkk...zz.wqkeeqoheccdfa-----egabaabcdddegghliiiqq......xeeehheehccquss.
(PID.TID 0000.0001) //     21 bbeir........nbbcdjhqdddiiz.....wqfeelgghmedea-----bibbcddddddefghklnqoo........ieeflhgcccbbei
(PID.TID 0000.0001) //     20 bbder.......ldcccdgkccccidd......z.vkkktqqhegg----aaacddddddddefghkiiijl.........nhfa--gfcbbde
(PID.TID 0000.0001) //     19 cdaaf.......kddosggpaaaibbccx...+z+.....r+nlec---agaaabcddccddefikfgffff...........d---cjhcdaa
(PID.TID 0000.0001) //     18 d---d.......kglggvliaaaibbcaaeaiv++...qqzolhecccfdgkaabcdfccdeeikgfgffdd+..........d---djhd---
(PID.TID 0000.0001) //     17 c---c.......l.feewlfaaaoaa----aiv.....qqnllslmlofcdbaacceffffhhligfigeddj.........hd---ckhc---
(PID.TID 0000.0001) //     16 ba--c......tn.ddgnlfdaaqa-----lv.......vnllvllnwv--accivomfffhilhgfffeddjf........re--aeigba--
(PID.TID 0000.0001) //     15 b--dpz....+ll.ccdfhmdddlc----av.........otsxoomv---abccddfihgijkhgfffeejfff......+fd---ckfb--d
(PID.TID 0000.0001) //     14 c--mcl....weeqbaafilkfend--eagy.........hhstofft----aacdheefijkmjhhjijiffff.....zlfdaaadlfc--m
(PID.TID 0000.0001) //     13 cclbbg....nccobaaiddgkffqrqeaal.........eeutqfft------aaceeffhijlkjhhigfffq....+jgfodccflhcclb
(PID.TID 0000.0001) //     12 hgaaacw+iiicclemhdddfliigfdcaabfaaaz....ccsurqpc--------abcifffikiiihhggff.....kbbbdfffglhhgaa
(PID.TID 0000.0001) //     11 gcaaacbbifccennhbbdefnihgfdccaaaa----..dcccnt.ncab-------aabcdfilhggjiggff....l---abcefjlkgcaa
(PID.TID 0000.0001) //     10 fcaaccbdaacfrllfbbdegkmmljhfdddba----d.dcccfx.nyrebaba----abcdgilhfeegijgi..+w--aa-abcfilkfcaa
(PID.TID 0000.0001) //      9 ffcdcccaaaoqsolfdeehikihhlllgfedcccccdmdcccf.vyfaaaaaaaa--abdehmjhfeeefglv.++w-----abcdfklffcd
(PID.TID 0000.0001) //      8 iffjklcaafddffeeccvznkfffhhhlkjifgjkkfeeddfsyvcaaaaaaccdcccdfgjligedbbceg+.++xffn--cfddefliffj
(PID.TID 0000.0001) //      7 mqnnbbkkf--bmbaabbgtykfddeffeeddccdfhlffeelfbaaaaaacddeghgjgjlligeddaaabedfiiiiiisvkfkecchmqnn
(PID.TID 0000.0001) //      6 ca-------------aabcelttdddedddddccccdfkkiiffbaaaabcdgimmkmefecaaabbbaaabbdfiiiiispmmregifcca--
(PID.TID 0000.0001) //      5 -------a-------aaccehhhiddeddddddcccdfiikomodddefffmlmigedccaaaaaaaababbbdfiijsqgeccccbaa-----
(PID.TID 0000.0001) //      4 -ahebaabbbbbeihffgijiiiijpywnnpokkomkiiijmmmolkommmgffeeedccaaaaaabbcccefhmz..yjgeccccbaa--ahe
(PID.TID 0000.0001) //      3 ffhhrpjiiwyy............................yxotmjjjjgfeeeeeeddeffffheddeghjkyy..yqjgeddccdbbgffhh
(PID.TID 0000.0001) //      2 ............................................zyxxmgfeeefefgimnpwwwy..+zyy.....yyyyoiiihhz+.....
(PID.TID 0000.0001) //      1 ..............................................................................................
(PID.TID 0000.0001) //      0 qlloqz+.++++zzz++++++..................................................................+++qllo
(PID.TID 0000.0001) //     -1 slloorzzzzzzzzz+...++.....................................................yxxz........+zvusllo
(PID.TID 0000.0001) // =======================================================
(PID.TID 0000.0001) // END OF FIELD                                          =
(PID.TID 0000.0001) // =======================================================
(PID.TID 0000.0001) 
(PID.TID 0000.0001) // =======================================================
(PID.TID 0000.0001) // Field Model Ro_surf (ini_masks_etc) at iteration          1
(PID.TID 0000.0001) // CMIN =          1.000000000000000E+32
(PID.TID 0000.0001) // CMAX =         -1.000000000000000E+32
(PID.TID 0000.0001) // CINT =          0.000000000000000E+00
(PID.TID 0000.0001) // SYMBOLS (CMIN->CMAX): -abcdefghijklmnopqrstuvwxyz+
(PID.TID 0000.0001) //                  0.0: .
(PID.TID 0000.0001) // RANGE I (Lo:Hi:Step):(  -1:  92:   1)
(PID.TID 0000.0001) // RANGE J (Lo:Hi:Step):(  42:  -1:  -1)
(PID.TID 0000.0001) // RANGE K (Lo:Hi:Step):(   1:   1:   1)
(PID.TID 0000.0001) // =======================================================
(PID.TID 0000.0001) // =======================================================
(PID.TID 0000.0001) // END OF FIELD                                          =
(PID.TID 0000.0001) // =======================================================
(PID.TID 0000.0001) 
(PID.TID 0000.0001) // =======================================================
(PID.TID 0000.0001) // Field hFacC at iteration          1
(PID.TID 0000.0001) // CMIN =          1.000000000000000E+00
(PID.TID 0000.0001) // CMAX =          1.000000000000000E+00
(PID.TID 0000.0001) // CINT =          0.000000000000000E+00
(PID.TID 0000.0001) // SYMBOLS (CMIN->CMAX): -abcdefghijklmnopqrstuvwxyz+
(PID.TID 0000.0001) //                  0.0: .
(PID.TID 0000.0001) // RANGE I (Lo:Hi:Step):(  -1:  92:   1)
(PID.TID 0000.0001) // RANGE J (Lo:Hi:Step):(  42:  -1:  -1)
(PID.TID 0000.0001) // RANGE K (Lo:Hi:Step):(   1:   1:   1)
(PID.TID 0000.0001) // =======================================================
(PID.TID 0000.0001) // =======================================================
(PID.TID 0000.0001) // END OF FIELD                                          =
(PID.TID 0000.0001) // =======================================================
(PID.TID 0000.0001) 
(PID.TID 0000.0001) // =======================================================
(PID.TID 0000.0001) // Field hFacW at iteration          1
(PID.TID 0000.0001) // CMIN =          1.000000000000000E+00
(PID.TID 0000.0001) // CMAX =          1.000000000000000E+00
(PID.TID 0000.0001) // CINT =          0.000000000000000E+00
(PID.TID 0000.0001) // SYMBOLS (CMIN->CMAX): -abcdefghijklmnopqrstuvwxyz+
(PID.TID 0000.0001) //                  0.0: .
(PID.TID 0000.0001) // RANGE I (Lo:Hi:Step):(  -1:  92:   1)
(PID.TID 0000.0001) // RANGE J (Lo:Hi:Step):(  42:  -1:  -1)
(PID.TID 0000.0001) // RANGE K (Lo:Hi:Step):(   1:   1:   1)
(PID.TID 0000.0001) // =======================================================
(PID.TID 0000.0001) // =======================================================
(PID.TID 0000.0001) // END OF FIELD                                          =
(PID.TID 0000.0001) // =======================================================
(PID.TID 0000.0001) 
(PID.TID 0000.0001) // =======================================================
(PID.TID 0000.0001) // Field hFacS at iteration          1
(PID.TID 0000.0001) // CMIN =          1.000000000000000E+00
(PID.TID 0000.0001) // CMAX =          1.000000000000000E+00
(PID.TID 0000.0001) // CINT =          0.000000000000000E+00
(PID.TID 0000.0001) // SYMBOLS (CMIN->CMAX): -abcdefghijklmnopqrstuvwxyz+
(PID.TID 0000.0001) //                  0.0: .
(PID.TID 0000.0001) // RANGE I (Lo:Hi:Step):(  -1:  92:   1)
(PID.TID 0000.0001) // RANGE J (Lo:Hi:Step):(  42:  -1:  -1)
(PID.TID 0000.0001) // RANGE K (Lo:Hi:Step):(   1:   1:   1)
(PID.TID 0000.0001) // =======================================================
(PID.TID 0000.0001) // =======================================================
(PID.TID 0000.0001) // END OF FIELD                                          =
(PID.TID 0000.0001) // =======================================================
(PID.TID 0000.0001) 
(PID.TID 0000.0001) %MON surfExpanfCori_max           =   1.4265546244797E-04
(PID.TID 0000.0001) %MON surfExpanfCori_min           =  -1.4265546244797E-04
(PID.TID 0000.0001) %MON surfExpanfCori_mean          =  -1.2347858075529E-21
(PID.TID 0000.0001) %MON surfExpanfCori_sd            =   9.6599226301547E-05
(PID.TID 0000.0001) %MON surfExpanfCoriG_max          =   1.4151032568025E-04
(PID.TID 0000.0001) %MON surfExpanfCoriG_min          =  -1.4362679550910E-04
(PID.TID 0000.0001) %MON surfExpanfCoriG_mean         =  -3.5906698877274E-06
(PID.TID 0000.0001) %MON surfExpanfCoriG_sd           =   9.6548915696244E-05
(PID.TID 0000.0001) %MON surfExpanfCoriCos_max        =   1.4575362704741E-04
(PID.TID 0000.0001) %MON surfExpanfCoriCos_min        =   3.0322354601388E-05
(PID.TID 0000.0001) %MON surfExpanfCoriCos_mean       =   1.0288600773632E-04
(PID.TID 0000.0001) %MON surfExpanfCoriCos_sd         =   3.6784304327266E-05
(PID.TID 0000.0001) INI_CG2D: CG2D normalisation factor =  6.5682677425711703E-05
(PID.TID 0000.0001) 
(PID.TID 0000.0001)  MDS_READ_FIELD: opening global file: lev_t.bin
(PID.TID 0000.0001) // =======================================================
(PID.TID 0000.0001) // Field Initial Temperature at iteration          1
(PID.TID 0000.0001) // CMIN =         -1.900000000000000E+00
(PID.TID 0000.0001) // CMAX =          2.973338890075684E+01
(PID.TID 0000.0001) // CINT =          1.171606996324327E+00
(PID.TID 0000.0001) // SYMBOLS (CMIN->CMAX): -abcdefghijklmnopqrstuvwxyz+
(PID.TID 0000.0001) //                  0.0: .
(PID.TID 0000.0001) // RANGE I (Lo:Hi:Step):(   1:  90:   1)
(PID.TID 0000.0001) // RANGE J (Lo:Hi:Step):(  40:   1:  -1)
(PID.TID 0000.0001) // RANGE K (Lo:Hi:Step):(   1:   1:   1)
(PID.TID 0000.0001) // =======================================================
(PID.TID 0000.0001) K =   1
(PID.TID 0000.0001)                I=10      I=20      I=30      I=40      I=50      I=60      I=70      I=80      I=90
(PID.TID 0000.0001) |--J--|123456789|123456789|123456789|123456789|123456789|123456789|123456789|123456789|123456789|
(PID.TID 0000.0001)     40 bccdd.baa----abdedd..................................................................bbbbb
(PID.TID 0000.0001)     39 ccdddddccbbbaa...ed.....................................................----........bbbbbb
(PID.TID 0000.0001)     38 fffgfedeedddc...........................................................-----......cbbbcde
(PID.TID 0000.0001)     37 ghh..................................................................bc...bbc...edeed.defg
(PID.TID 0000.0001)     36 hh.........................................ddcb....................dcccbabccdd.eefghhihhih
(PID.TID 0000.0001)     35 hh.................................aaab..dddeddd...ffggg...........ccc....ddeeeffghijjjjih
(PID.TID 0000.0001)     34 ...................................babb.deeeeeee.ffffgghh..................ccdffghijkkkj..
(PID.TID 0000.0001)     33 ....................................accdddeeeeefffffgghhiii.................bcfijkkllllkk.
(PID.TID 0000.0001)     32 ....................................bdddeffgffgghhhhhiiijjj................dccglmnmmmmlll.
(PID.TID 0000.0001)     31 ....................................fghiiiijjjjjjkkkkklllkk..............ikkjjmooooonnmm..
(PID.TID 0000.0001)     30 ...................................mmmnmmmmmmmmmmmmmnnnnnmm............moqrrrqrqqqpppooo..
(PID.TID 0000.0001)     29 .................................pqqqqqpppppppppoppoppppponm...........ssssssrrrrrqqqqpp..
(PID.TID 0000.0001)     28 ...............................prssssrrrsssrrrrrrrrrrrrrqqpoo.........uttssstssrssrrrqqq..
(PID.TID 0000.0001)     27 ..............vv..............stuttuuuuutuuuuuuuuuuttttssrrqqq...stuu.vvvuuuuutttttsss....
(PID.TID 0000.0001)     26 ..............vvv...........uuvvvvvwwwwwwwwvvvvvvvvvuuutttsssttv.uuvxxwwwwwwvvvvuuttsr....
(PID.TID 0000.0001)     25 ..............wwwx...xxx...vvvxxxxxyyxxxxxxxxxwwwwwvvvvvuuuuuvwwx...xxxxxxwwwwwwvvutsr....
(PID.TID 0000.0001)     24 ............wwwwxyy.xxyy...wxx.yyyyyyyyyyyxxxxxxxxwwwwwwwvvwwxxyywww.xxxxxxxxxxwwwvvur....
(PID.TID 0000.0001)     23 ............xxxyyyz.xyyy...xxx..yyyyzzyyyyyyyyxxxxxxxxxwwwwwxxxwwwwwx....vwxxxxwwwwwvu....
(PID.TID 0000.0001)     22 w...........xxyyyzyyyyyz...xx.yyzzzzzzzzzzzzzyyzyyyyyyxxwwxxxxwvvvwwxw......yyyyxxxxxxwxxw
(PID.TID 0000.0001)     21 xxx........xxxxyyzzzzzzz+.....zyzzzzzzz++zzzzyyyyyyyyxxwvvwwwwvvvvvvvu........yyyyyyyyyxxx
(PID.TID 0000.0001)     20 xww.......xyyyyxyyzzzzzz+......z.zzzzz+++zzzzzzyyyyyxxxxwvwxwvuuuuuuut.........yyyyxxxxwww
(PID.TID 0000.0001)     19 vvv.......yyyyxwwxyzyyzzzzz...zzz.....++++++z++z+zzzyyyyxxxxwwvvvvvvvu...........yyxxxwwww
(PID.TID 0000.0001)     18 uut.......zzyyywwxyzyyyyzzyzzzzzz...z+z++++zz+++++++zzzyyyyxxwwwvvvvvtt..........yyxxwvvwv
(PID.TID 0000.0001)     17 uus.......z.yyyyyyxyzzyyyyyyyzz.....yzzzzzzzzzzzzzzzzzzyyyyxxwwvuuvvuut.........yyyxxwttvu
(PID.TID 0000.0001)     16 utr......yy.zyyyyxxxxxxxwxxxxy.......yyyyyyyyyyyyyyyyyyyyyyyxxwvvvuuutts........xyyyxwvuuu
(PID.TID 0000.0001)     15 ttrr....xxx.xxxwxwwwwvwwvvvww.........xwxxxxxxxxxxxxxxxxxyyyxwwwvvuttssrr......wxxxxxwwvuu
(PID.TID 0000.0001)     14 ttsq....xyxwwxwvwwwvutuuuuuuu.........wwvwwwwvwvvwwwvwvvwwwwwwvvvuuutssrr.....vwwwwwwwvvvu
(PID.TID 0000.0001)     13 tttr....wwwvvvtttuuuutttssttt.........vvvuuuuuuutttttuuuuuvwwwuuuttttssrr....uvvvvvvvvvvut
(PID.TID 0000.0001)     12 sssssstttutssssrrrrrstrqqrrssqqrrq....uuttssssrrrrrrrrrrrstttssssrssrrqp.....uuuttssttssss
(PID.TID 0000.0001)     11 poprsssrqqqqqrqppooopqpoppppppppppp..sssrrr.rqpppqqqqppppqqqoppqqqqrqqpp....prsrqqqqqppppq
(PID.TID 0000.0001)     10 lllmoooonmnnmnnnnmmmmmmlmmlllmnnnnon.qqqppp.ppppppooooooooonmnnnonnooooo..nmoponnmnnnnnmll
(PID.TID 0000.0001)      9 ihhiiiihhhhhhiiihiiiiihhhiiiijjkkmnllnnnnn.mmmmnnnnmmmmnnmmlklllllklllll.mllmmllkjiijjihhi
(PID.TID 0000.0001)      8 eeeeeeeedefgggffeeffggffffggghiiiijjijklklkkkkkkkklllkkkkjjiiijkjjjjjjkj.kkjjiihggffffedde
(PID.TID 0000.0001)      7 cccccddeedddefeddddddddddefeefffffgggghiiiiiijjjihhgggghhhhhghhhhhhhiiiihiihhgfeddddddcccc
(PID.TID 0000.0001)      6 abbcccddcccccdddddccdddddddccddddddeeeeffggggghhgeddddddeeeeeeefggggghggggffeedccbbbbbbbba
(PID.TID 0000.0001)      5 bbbcccccccccccccccccccccbbccccdddddddcccddeeddeedcbbbbbbccccccdddeeeeeddddddccbbbbaaaaaaab
(PID.TID 0000.0001)      4 bbbbbbbaaabbbbbbbbbbbbaabbabbbbcbbbbbbbbbbbbbbbbbbbabbaaabbbbbbbbbbbbbbbbb..a--aaabbbaaabb
(PID.TID 0000.0001)      3 bbbbaaa-a-............................bbaaaaaaaaaaaaaaaaaaaaaaaaaaaaaaaab..aaaaaaaabbbaaaa
(PID.TID 0000.0001)      2 ..........................................baaaaaaaaaaaa-------aa..aaaa.....aaaaaaaaaaaa...
(PID.TID 0000.0001)      1 ..........................................................................................
(PID.TID 0000.0001) // =======================================================
(PID.TID 0000.0001) // END OF FIELD                                          =
(PID.TID 0000.0001) // =======================================================
(PID.TID 0000.0001) 
(PID.TID 0000.0001)  MDS_READ_FIELD: opening global file: lev_s.bin
(PID.TID 0000.0001) // =======================================================
(PID.TID 0000.0001) // Field Initial Salinity at iteration          1
(PID.TID 0000.0001) // CMIN =          2.975276947021484E+01
(PID.TID 0000.0001) // CMAX =          3.747562789916992E+01
(PID.TID 0000.0001) // CINT =          2.860317936650029E-01
(PID.TID 0000.0001) // SYMBOLS (CMIN->CMAX): -abcdefghijklmnopqrstuvwxyz+
(PID.TID 0000.0001) //                  0.0: .
(PID.TID 0000.0001) // RANGE I (Lo:Hi:Step):(   1:  90:   1)
(PID.TID 0000.0001) // RANGE J (Lo:Hi:Step):(  40:   1:  -1)
(PID.TID 0000.0001) // RANGE K (Lo:Hi:Step):(   1:   1:   1)
(PID.TID 0000.0001) // =======================================================
(PID.TID 0000.0001) K =   1
(PID.TID 0000.0001)                I=10      I=20      I=30      I=40      I=50      I=60      I=70      I=80      I=90
(PID.TID 0000.0001) |--J--|123456789|123456789|123456789|123456789|123456789|123456789|123456789|123456789|123456789|
(PID.TID 0000.0001)     40 qrrrr.oonnooopqtutt..................................................................mnnop
(PID.TID 0000.0001)     39 rssrrrrrrrqqpn...ut.....................................................mmmm........opqqqr
(PID.TID 0000.0001)     38 ssrrqqqqrrqpo...........................................................lkkll......onoqrrs
(PID.TID 0000.0001)     37 ssr..................................................................hg...lln...qppqr.rrrs
(PID.TID 0000.0001)     36 rr.........................................lkji....................feeegikmoop.pqrssssssss
(PID.TID 0000.0001)     35 rr.................................kkkk..lllllki...jijjj...........aa-....opqrrrrrrrssttss
(PID.TID 0000.0001)     34 ...................................jlll.kklllllk.ijkkkjih..................hlpqrqrrsstts..
(PID.TID 0000.0001)     33 ....................................iklkkkkkkkkkjkkjjjjjjii.................jmprrsstttttt.
(PID.TID 0000.0001)     32 ....................................iklllkllllllllkkkkkkkji................gilpstuuttuuut.
(PID.TID 0000.0001)     31 ....................................lmnonnnnoooonnmmmmllkjj..............loopqtvvvuuuuuu..
(PID.TID 0000.0001)     30 ...................................pppppppqqqqpppoooonnmlkk............ptvxwwvvwvvvvvvvu..
(PID.TID 0000.0001)     29 .................................pqqrqqqqqqrrrqqppqqqpponmll...........vxxxxxxwwwwwxwwxw..
(PID.TID 0000.0001)     28 ...............................prrrrrqqrrrrrsrrsrssssssrqonmm.........wxxxxxxxyyyyyyyyxx..
(PID.TID 0000.0001)     27 ..............xx..............prrrrrrrrrssssssstttssssssrqpoop...uwww.wwxxxyyy++zzzzyy....
(PID.TID 0000.0001)     26 ..............wxx...........ppqrrrrrrsssrrstsstttssrrrrrrrqppqqp.wwwvvwwwwwxyy+++zzyxw....
(PID.TID 0000.0001)     25 ..............wxxv...kkk...ooopqrrrrrssrrrrrrrssssqqpppppppppppoo...vvutuuvvwxyyyxxvvu....
(PID.TID 0000.0001)     24 ............uvvwwur.lmlk...nmm.pqqqqrrrrrqqqqrrqqrpppppooooonmmmnooo.uuuuuuttuvvvuvuut....
(PID.TID 0000.0001)     23 ............vvuvtqp.lmml...mln..ppppqpqppppppqpppppppppqppponnnnnoopm....xvuuuvvvvuuut....
(PID.TID 0000.0001)     22 r...........vuttsqqpnppn...mm.oppqqrrqqqqqqppppqqrrrqqqrrppppoopooomjj......uuvvvvvuttssrr
(PID.TID 0000.0001)     21 qmm........ttsssssssrsqon.....opqqqqqqqrrrrqqqssssssrrrrrrrrpqqqppomll........tvvvvuttssrr
(PID.TID 0000.0001)     20 sqq.......sttssrrsrrrrpol......p.qrqpqrrrrrrrstttttsssrrsssrqrrrrqqqpo.........wwwvvvuuutt
(PID.TID 0000.0001)     19 tsr.......ssssrrrrpppppnmmm...oqq.....qrqqsrrstttuuuttssttssrrssrrrrqq...........wwwvuvvvv
(PID.TID 0000.0001)     18 wut.......ssrrrrrqppppppppoooorrr...poqqqprrrttttuuutuuuuuutttttttutsss..........yyxwwxwxx
(PID.TID 0000.0001)     17 wwu.......s.rrrrrrqppppqqqqqqqr.....rrsrqrsssuusrtuuuvvvwwvvvuuuuutttss.........xyzyyyyxxx
(PID.TID 0000.0001)     16 vvt......ss.qrrssrqrqpqrrrrrrr.......ssrrstsstusrsuuuvwwwwxxwwvvvuttttsr........yz+zzzxwww
(PID.TID 0000.0001)     15 utss....stt.rrssstttsrrsrstsr.........ssstttssttsuuttuvvvvwxwwwwwuttsssrr......xyyyyxyyxwv
(PID.TID 0000.0001)     14 utts....sstrrssstuuuuuuuuuutt.........stttuutttttttuttttttuvvvvvvutsrqrrr.....vxxwwwwxwvwv
(PID.TID 0000.0001)     13 uuut....ttttttttuuuuuvtuuuuuu.........ttttuutttttttuutsssstttttstsqrqqppp....uwwwvuvvvutvv
(PID.TID 0000.0001)     12 ttttttttttttttttttttttssuuuuutuuut....tttttttttttsssssrrrrrrrqqqqqppppoo.....rvvuuttttttuu
(PID.TID 0000.0001)     11 rqsttttttttuuttttsssssrrstttttttsss..ttttts.tsssrrrrqqqqqppppoonnooooooo....oruttttsssrqrs
(PID.TID 0000.0001)     10 pppqrssrqqrqpqrssrrqqqqqqrrrrrrrrrrs.sssssr.rssrrqqpppppppooooonnnoooonn..moqrrrqqqqqqqqqq
(PID.TID 0000.0001)      9 oonooooooooonnnooooooooooppppppqqqqqrrrqrq.pppqqqqqppppppppppoooooooooll.lmoqqqqppooooopoo
(PID.TID 0000.0001)      8 nnnoonooooooonnnnnnnoooonoonoooppopqqqqqqqppopppqqqpppppppppppppppooopon.lnopppoooonnnnooo
(PID.TID 0000.0001)      7 ooooooooooopponnnooooooonnnnnonnooooooooopppppppoooooooooopppppppppoopqnnmnoooonnnonnnnnno
(PID.TID 0000.0001)      6 oooonnoonnnnooooooooooooonnnnnnnnnnnnnnnnoooopppooooooooooooooppppppppppoooooooonnnnnmnnnn
(PID.TID 0000.0001)      5 oooonnnnnnnnnnnnnnnnnoooooonnnnnnonnnnnnnnnoooooooooooonnnnnnooooooopoooonoooonnnnnnnooooo
(PID.TID 0000.0001)      4 oooonnnooonnnnnnnnnnnnnnoooooonnnooooonnnooooooooppponnnnmmmnnnnmnnoonnnnn..nnnooooooooooo
(PID.TID 0000.0001)      3 ooonnnnnnn............................nnoooooonnooooonnnnnnnoonnnnnnnnmmm..ooopooooooooooo
(PID.TID 0000.0001)      2 ..........................................pppooooonnnnnnoooppppo..nnnn.....qqqpppoooooo...
(PID.TID 0000.0001)      1 ..........................................................................................
(PID.TID 0000.0001) // =======================================================
(PID.TID 0000.0001) // END OF FIELD                                          =
(PID.TID 0000.0001) // =======================================================
(PID.TID 0000.0001) 
(PID.TID 0000.0001) Start initial hydrostatic pressure computation
(PID.TID 0000.0001) Pressure is predetermined for buoyancyRelation OCEANIC
(PID.TID 0000.0001) 
(PID.TID 0000.0001)  MDS_READ_FIELD: opening global file: trenberth_taux.bin
(PID.TID 0000.0001)  MDS_READ_FIELD: opening global file: trenberth_tauy.bin
(PID.TID 0000.0001)  MDS_READ_FIELD: opening global file: ncep_qnet.bin
(PID.TID 0000.0001)  MDS_READ_FIELD: opening global file: lev_sst.bin
(PID.TID 0000.0001)  MDS_READ_FIELD: opening global file: lev_sss.bin
(PID.TID 0000.0001) // =======================================================
(PID.TID 0000.0001) // Model current state
(PID.TID 0000.0001) // =======================================================
(PID.TID 0000.0001) 
S/R EXTERNAL_FIELDS_LOAD: Reading new data:   12    1         0  0.000000000000E+00
(PID.TID 0000.0001)  MDS_READ_FIELD: opening global file: trenberth_taux.bin
(PID.TID 0000.0001)  MDS_READ_FIELD: opening global file: trenberth_taux.bin
(PID.TID 0000.0001)  MDS_READ_FIELD: opening global file: trenberth_tauy.bin
(PID.TID 0000.0001)  MDS_READ_FIELD: opening global file: trenberth_tauy.bin
(PID.TID 0000.0001)  MDS_READ_FIELD: opening global file: ncep_qnet.bin
(PID.TID 0000.0001)  MDS_READ_FIELD: opening global file: ncep_qnet.bin
(PID.TID 0000.0001)  MDS_READ_FIELD: opening global file: lev_sst.bin
(PID.TID 0000.0001)  MDS_READ_FIELD: opening global file: lev_sst.bin
(PID.TID 0000.0001)  MDS_READ_FIELD: opening global file: lev_sss.bin
(PID.TID 0000.0001)  MDS_READ_FIELD: opening global file: lev_sss.bin
time,SST,SSS,fu,fv,Q,E-P,i0,i1,a,b =   0.0000E+00  5.3151E-02  3.4364E+01 -4.0500E-02 -6.3753E-02  2.6510E+02  0.0000E+00    12     1  5.0000E-01  5.0000E-01
time,fu0,fu1,fu =   0.0000E+00 -4.5368E-02 -3.5633E-02 -4.0500E-02  5.000000000000000E-01  5.000000000000000E-01
(PID.TID 0000.0001)  MDS_READ_FIELD: opening file: xx_hfluxm.0000000000.001.001.data
 cg2d: Sum(rhs),rhsMax =   1.47867829092263E-14  2.54952604282385E+00
time,SST,SSS,fu,fv,Q,E-P,i0,i1,a,b =   8.6400E+04  1.1350E-01  3.4387E+01 -4.0176E-02 -6.3320E-02  2.6514E+02  0.0000E+00    12     1  5.3333E-01  4.6667E-01
time,fu0,fu1,fu =   8.6400E+04 -4.5368E-02 -3.5633E-02 -4.0176E-02  5.333333333333333E-01  4.666666666666667E-01
 cg2d: Sum(rhs),rhsMax =   9.35362898246694E-15  2.62443215722193E+00
time,SST,SSS,fu,fv,Q,E-P,i0,i1,a,b =   1.7280E+05  1.7385E-01  3.4410E+01 -3.9851E-02 -6.2886E-02  2.6519E+02  0.0000E+00    12     1  5.6667E-01  4.3333E-01
time,fu0,fu1,fu =   1.7280E+05 -4.5368E-02 -3.5633E-02 -3.9851E-02  5.666666666666667E-01  4.333333333333333E-01
 cg2d: Sum(rhs),rhsMax =   2.78110867668602E-14  2.39923446837847E+00
time,SST,SSS,fu,fv,Q,E-P,i0,i1,a,b =   2.5920E+05  2.3421E-01  3.4434E+01 -3.9527E-02 -6.2453E-02  2.6523E+02  0.0000E+00    12     1  6.0000E-01  4.0000E-01
time,fu0,fu1,fu =   2.5920E+05 -4.5368E-02 -3.5633E-02 -3.9527E-02  6.000000000000000E-01  4.000000000000000E-01
 cg2d: Sum(rhs),rhsMax =   3.37230243729891E-14  2.21574359139746E+00
time,SST,SSS,fu,fv,Q,E-P,i0,i1,a,b =   3.4560E+05  2.9456E-01  3.4457E+01 -3.9202E-02 -6.2020E-02  2.6528E+02  0.0000E+00    12     1  6.3333E-01  3.6667E-01
time,fu0,fu1,fu =   3.4560E+05 -4.5368E-02 -3.5633E-02 -3.9202E-02  6.333333333333333E-01  3.666666666666667E-01
 cg2d: Sum(rhs),rhsMax =   9.88098491916389E-15  2.00995911925420E+00
time,SST,SSS,fu,fv,Q,E-P,i0,i1,a,b =   4.3200E+05  3.5491E-01  3.4481E+01 -3.8878E-02 -6.1587E-02  2.6532E+02  0.0000E+00    12     1  6.6667E-01  3.3333E-01
time,fu0,fu1,fu =   4.3200E+05 -4.5368E-02 -3.5633E-02 -3.8878E-02  6.666666666666666E-01  3.333333333333334E-01
 cg2d: Sum(rhs),rhsMax =  -2.04836148043341E-14  1.78612610482802E+00
time,SST,SSS,fu,fv,Q,E-P,i0,i1,a,b =   5.1840E+05  4.1526E-01  3.4504E+01 -3.8553E-02 -6.1154E-02  2.6537E+02  0.0000E+00    12     1  7.0000E-01  3.0000E-01
time,fu0,fu1,fu =   5.1840E+05 -4.5368E-02 -3.5633E-02 -3.8553E-02  7.000000000000000E-01  3.000000000000000E-01
 cg2d: Sum(rhs),rhsMax =  -1.09495745803656E-14  1.55419822189543E+00
time,SST,SSS,fu,fv,Q,E-P,i0,i1,a,b =   6.0480E+05  4.7561E-01  3.4527E+01 -3.8229E-02 -6.0721E-02  2.6541E+02  0.0000E+00    12     1  7.3333E-01  2.6667E-01
time,fu0,fu1,fu =   6.0480E+05 -4.5368E-02 -3.5633E-02 -3.8229E-02  7.333333333333333E-01  2.666666666666667E-01
 cg2d: Sum(rhs),rhsMax =  -2.30510055487798E-14  1.32823755866212E+00
time,SST,SSS,fu,fv,Q,E-P,i0,i1,a,b =   6.9120E+05  5.3596E-01  3.4551E+01 -3.7904E-02 -6.0288E-02  2.6546E+02  0.0000E+00    12     1  7.6667E-01  2.3333E-01
time,fu0,fu1,fu =   6.9120E+05 -4.5368E-02 -3.5633E-02 -3.7904E-02  7.666666666666667E-01  2.333333333333333E-01
 cg2d: Sum(rhs),rhsMax =   4.10504963355152E-14  1.15613808756724E+00
time,SST,SSS,fu,fv,Q,E-P,i0,i1,a,b =   7.7760E+05  5.9632E-01  3.4574E+01 -3.7580E-02 -5.9855E-02  2.6550E+02  0.0000E+00    12     1  8.0000E-01  2.0000E-01
time,fu0,fu1,fu =   7.7760E+05 -4.5368E-02 -3.5633E-02 -3.7580E-02  8.000000000000000E-01  2.000000000000000E-01
 cg2d: Sum(rhs),rhsMax =   2.41751063612128E-14  1.08384893695824E+00
(PID.TID 0000.0001) %CHECKPOINT        10 ckptB
(PID.TID 0000.0001)  MDS_READ_FIELD: opening global file: lev_t_an.bin
 --> objf_test(bi,bj)   =  0.000000000000000E+00
 --> objf_tracer(bi,bj) =  0.000000000000000E+00
 --> objf_atl(bi,bj)    =  0.000000000000000E+00
 --> objf_temp_tut(bi,bj)   =  0.620487585651400E+01
 --> objf_hflux_tut(bi,bj) =  0.330079884976879E-08
  local fc =  0.620487586311560E+01
 global fc =  0.620487586311560E+01
(PID.TID 0000.0001)  MDS_READ_FIELD: opening file: xx_hfluxm.0000000000.001.001.data
grad-res -------------------------------
 grad-res     0    2   77   27    1    1    1    1   0.620487645063E+01 0.620487705131E+01 0.620487586312E+01
 grad-res     0    2    2 1873 2315    1    1    1   0.594096025808E-05 0.594095963535E-05 0.104819590674E-06
(PID.TID 0000.0001)   ADM  precision_derivative_cost =    6.20487645062633E+00
(PID.TID 0000.0001)   ADM  precision_derivative_grad =    5.94096025808226E-06
 ph-grd  ierr ---------------------------
 ph-grd  ierr =  0, icomp =  1873, ichknum =  2
 ph-grd -->hit<--  78 27 1 1
(PID.TID 0000.0001)  MDS_READ_FIELD: opening file: adxx_hfluxm.0000000000.001.001.data
(PID.TID 0000.0001)  MDS_READ_FIELD: opening file: xx_hfluxm.0000000000.001.001.data
(PID.TID 0000.0001)  MDS_READ_FIELD: opening global file: bathymetry.bin
(PID.TID 0000.0001) // =======================================================
(PID.TID 0000.0001) // Field Model R_low (ini_masks_etc) at iteration          1
(PID.TID 0000.0001) // CMIN =         -5.200000000000000E+03
(PID.TID 0000.0001) // CMAX =         -1.200000000000000E+02
(PID.TID 0000.0001) // CINT =          1.881481481481482E+02
(PID.TID 0000.0001) // SYMBOLS (CMIN->CMAX): -abcdefghijklmnopqrstuvwxyz+
(PID.TID 0000.0001) //                  0.0: .
(PID.TID 0000.0001) // RANGE I (Lo:Hi:Step):(  -1:  92:   1)
(PID.TID 0000.0001) // RANGE J (Lo:Hi:Step):(  42:  -1:  -1)
(PID.TID 0000.0001) // RANGE K (Lo:Hi:Step):(   1:   1:   1)
(PID.TID 0000.0001) // =======================================================
(PID.TID 0000.0001) K =   1
(PID.TID 0000.0001) //                I=8       I=18      I=28      I=38      I=48      I=58      I=68      I=78      I=88
(PID.TID 0000.0001) // |--J--|101234567|901234567|901234567|901234567|901234567|901234567|901234567|901234567|901234567|9012
(PID.TID 0000.0001) //     42 ............................................zyxxmgfeeefefgimnpwwwy..+zyy.....yyyyoiiihhz+.....
(PID.TID 0000.0001) //     41 ..............................................................................................
(PID.TID 0000.0001) //     40 qlloqz+.++++zzz++++++..................................................................+++qllo
(PID.TID 0000.0001) //     39 slloorzzzzzzzzz+...++.....................................................yxxz........+zvusllo
(PID.TID 0000.0001) //     38 mqpporzzzzzz+++...........................................................zxxy+......zyyvsmqpp
(PID.TID 0000.0001) //     37 mmmuz..................................................................++...zy+...yttyy.+smmmu
(PID.TID 0000.0001) //     36 utt+.........................................mm++....................+++++++znmm.yoowssvuyutt+
(PID.TID 0000.0001) //     35 ++++.................................+zzz..rrmmkk+...+gghn...........+++....+nmiijlsoopuww++++
(PID.TID 0000.0001) //     34 .....................................+vvy.ggqyxv+y.ccdffhim..................+nihhikkihhm+....
(PID.TID 0000.0001) //     33 +.....................................uuz---h------aaabdefin+.................zqvddflifffw+...
(PID.TID 0000.0001) //     32 +.....................................+t----h---------acdfgnn................+++gdffkofffm+...
(PID.TID 0000.0001) //     31 ......................................-----ad--------abddegil..............qbaafccdhqqgddm....
(PID.TID 0000.0001) //     30 .....................................f----b--b------------abd............zfbb--fbcdosjfddi....
(PID.TID 0000.0001) //     29 ...................................tu----e---fjg----------abdf...........eaac--abfmijaadgi....
(PID.TID 0000.0001) //     28 .................................+xfl-------------------bdedefi.........qbaa---aemfbbaaejz....
(PID.TID 0000.0001) //     27 ................xx..............+wfgfpf--------eallc---bbbccefgi...+++x.qb-----akfa---ah......
(PID.TID 0000.0001) //     26 ................xnn...........+vd---dna------a--aicfna---aabdfghku.++xssuy-----bgca---ci......
(PID.TID 0000.0001) //     25 ................iiik...oo+...+ivd---doaa-bc--ilglf--aa---aabcghhkll...ssum+xaaacjbaabdjk......
(PID.TID 0000.0001) //     24 ..............xnheeft.kkk+...uii.aagdm----aa-----a-------bbbcdefjljjju.zummwwbbchba--abi......
(PID.TID 0000.0001) //     23 ..............xgheefp.iikw...uuw..fihi----fed-----eaaa--bbbbcdfflkjiiiq....zykccefa--abd......
(PID.TID 0000.0001) //     22 uss...........bbelffslffkk...zz.wqkeeqoheccdfa-----egabaabcdddegghliiiqq......xeeehheehccquss.
(PID.TID 0000.0001) //     21 bbeir........nbbcdjhqdddiiz.....wqfeelgghmedea-----bibbcddddddefghklnqoo........ieeflhgcccbbei
(PID.TID 0000.0001) //     20 bbder.......ldcccdgkccccidd......z.vkkktqqhegg----aaacddddddddefghkiiijl.........nhfa--gfcbbde
(PID.TID 0000.0001) //     19 cdaaf.......kddosggpaaaibbccx...+z+.....r+nlec---agaaabcddccddefikfgffff...........d---cjhcdaa
(PID.TID 0000.0001) //     18 d---d.......kglggvliaaaibbcaaeaiv++...qqzolhecccfdgkaabcdfccdeeikgfgffdd+..........d---djhd---
(PID.TID 0000.0001) //     17 c---c.......l.feewlfaaaoaa----aiv.....qqnllslmlofcdbaacceffffhhligfigeddj.........hd---ckhc---
(PID.TID 0000.0001) //     16 ba--c......tn.ddgnlfdaaqa-----lv.......vnllvllnwv--accivomfffhilhgfffeddjf........re--aeigba--
(PID.TID 0000.0001) //     15 b--dpz....+ll.ccdfhmdddlc----av.........otsxoomv---abccddfihgijkhgfffeejfff......+fd---ckfb--d
(PID.TID 0000.0001) //     14 c--mcl....weeqbaafilkfend--eagy.........hhstofft----aacdheefijkmjhhjijiffff.....zlfdaaadlfc--m
(PID.TID 0000.0001) //     13 cclbbg....nccobaaiddgkffqrqeaal.........eeutqfft------aaceeffhijlkjhhigfffq....+jgfodccflhcclb
(PID.TID 0000.0001) //     12 hgaaacw+iiicclemhdddfliigfdcaabfaaaz....ccsurqpc--------abcifffikiiihhggff.....kbbbdfffglhhgaa
(PID.TID 0000.0001) //     11 gcaaacbbifccennhbbdefnihgfdccaaaa----..dcccnt.ncab-------aabcdfilhggjiggff....l---abcefjlkgcaa
(PID.TID 0000.0001) //     10 fcaaccbdaacfrllfbbdegkmmljhfdddba----d.dcccfx.nyrebaba----abcdgilhfeegijgi..+w--aa-abcfilkfcaa
(PID.TID 0000.0001) //      9 ffcdcccaaaoqsolfdeehikihhlllgfedcccccdmdcccf.vyfaaaaaaaa--abdehmjhfeeefglv.++w-----abcdfklffcd
(PID.TID 0000.0001) //      8 iffjklcaafddffeeccvznkfffhhhlkjifgjkkfeeddfsyvcaaaaaaccdcccdfgjligedbbceg+.++xffn--cfddefliffj
(PID.TID 0000.0001) //      7 mqnnbbkkf--bmbaabbgtykfddeffeeddccdfhlffeelfbaaaaaacddeghgjgjlligeddaaabedfiiiiiisvkfkecchmqnn
(PID.TID 0000.0001) //      6 ca-------------aabcelttdddedddddccccdfkkiiffbaaaabcdgimmkmefecaaabbbaaabbdfiiiiispmmregifcca--
(PID.TID 0000.0001) //      5 -------a-------aaccehhhiddeddddddcccdfiikomodddefffmlmigedccaaaaaaaababbbdfiijsqgeccccbaa-----
(PID.TID 0000.0001) //      4 -ahebaabbbbbeihffgijiiiijpywnnpokkomkiiijmmmolkommmgffeeedccaaaaaabbcccefhmz..yjgeccccbaa--ahe
(PID.TID 0000.0001) //      3 ffhhrpjiiwyy............................yxotmjjjjgfeeeeeeddeffffheddeghjkyy..yqjgeddccdbbgffhh
(PID.TID 0000.0001) //      2 ............................................zyxxmgfeeefefgimnpwwwy..+zyy.....yyyyoiiihhz+.....
(PID.TID 0000.0001) //      1 ..............................................................................................
(PID.TID 0000.0001) //      0 qlloqz+.++++zzz++++++..................................................................+++qllo
(PID.TID 0000.0001) //     -1 slloorzzzzzzzzz+...++.....................................................yxxz........+zvusllo
(PID.TID 0000.0001) // =======================================================
(PID.TID 0000.0001) // END OF FIELD                                          =
(PID.TID 0000.0001) // =======================================================
(PID.TID 0000.0001) 
(PID.TID 0000.0001) // =======================================================
(PID.TID 0000.0001) // Field Model Ro_surf (ini_masks_etc) at iteration          1
(PID.TID 0000.0001) // CMIN =          1.000000000000000E+32
(PID.TID 0000.0001) // CMAX =         -1.000000000000000E+32
(PID.TID 0000.0001) // CINT =          0.000000000000000E+00
(PID.TID 0000.0001) // SYMBOLS (CMIN->CMAX): -abcdefghijklmnopqrstuvwxyz+
(PID.TID 0000.0001) //                  0.0: .
(PID.TID 0000.0001) // RANGE I (Lo:Hi:Step):(  -1:  92:   1)
(PID.TID 0000.0001) // RANGE J (Lo:Hi:Step):(  42:  -1:  -1)
(PID.TID 0000.0001) // RANGE K (Lo:Hi:Step):(   1:   1:   1)
(PID.TID 0000.0001) // =======================================================
(PID.TID 0000.0001) // =======================================================
(PID.TID 0000.0001) // END OF FIELD                                          =
(PID.TID 0000.0001) // =======================================================
(PID.TID 0000.0001) 
(PID.TID 0000.0001) // =======================================================
(PID.TID 0000.0001) // Field hFacC at iteration          1
(PID.TID 0000.0001) // CMIN =          1.000000000000000E+00
(PID.TID 0000.0001) // CMAX =          1.000000000000000E+00
(PID.TID 0000.0001) // CINT =          0.000000000000000E+00
(PID.TID 0000.0001) // SYMBOLS (CMIN->CMAX): -abcdefghijklmnopqrstuvwxyz+
(PID.TID 0000.0001) //                  0.0: .
(PID.TID 0000.0001) // RANGE I (Lo:Hi:Step):(  -1:  92:   1)
(PID.TID 0000.0001) // RANGE J (Lo:Hi:Step):(  42:  -1:  -1)
(PID.TID 0000.0001) // RANGE K (Lo:Hi:Step):(   1:   1:   1)
(PID.TID 0000.0001) // =======================================================
(PID.TID 0000.0001) // =======================================================
(PID.TID 0000.0001) // END OF FIELD                                          =
(PID.TID 0000.0001) // =======================================================
(PID.TID 0000.0001) 
(PID.TID 0000.0001) // =======================================================
(PID.TID 0000.0001) // Field hFacW at iteration          1
(PID.TID 0000.0001) // CMIN =          1.000000000000000E+00
(PID.TID 0000.0001) // CMAX =          1.000000000000000E+00
(PID.TID 0000.0001) // CINT =          0.000000000000000E+00
(PID.TID 0000.0001) // SYMBOLS (CMIN->CMAX): -abcdefghijklmnopqrstuvwxyz+
(PID.TID 0000.0001) //                  0.0: .
(PID.TID 0000.0001) // RANGE I (Lo:Hi:Step):(  -1:  92:   1)
(PID.TID 0000.0001) // RANGE J (Lo:Hi:Step):(  42:  -1:  -1)
(PID.TID 0000.0001) // RANGE K (Lo:Hi:Step):(   1:   1:   1)
(PID.TID 0000.0001) // =======================================================
(PID.TID 0000.0001) // =======================================================
(PID.TID 0000.0001) // END OF FIELD                                          =
(PID.TID 0000.0001) // =======================================================
(PID.TID 0000.0001) 
(PID.TID 0000.0001) // =======================================================
(PID.TID 0000.0001) // Field hFacS at iteration          1
(PID.TID 0000.0001) // CMIN =          1.000000000000000E+00
(PID.TID 0000.0001) // CMAX =          1.000000000000000E+00
(PID.TID 0000.0001) // CINT =          0.000000000000000E+00
(PID.TID 0000.0001) // SYMBOLS (CMIN->CMAX): -abcdefghijklmnopqrstuvwxyz+
(PID.TID 0000.0001) //                  0.0: .
(PID.TID 0000.0001) // RANGE I (Lo:Hi:Step):(  -1:  92:   1)
(PID.TID 0000.0001) // RANGE J (Lo:Hi:Step):(  42:  -1:  -1)
(PID.TID 0000.0001) // RANGE K (Lo:Hi:Step):(   1:   1:   1)
(PID.TID 0000.0001) // =======================================================
(PID.TID 0000.0001) // =======================================================
(PID.TID 0000.0001) // END OF FIELD                                          =
(PID.TID 0000.0001) // =======================================================
(PID.TID 0000.0001) 
(PID.TID 0000.0001) %MON surfExpanfCori_max           =   1.4265546244797E-04
(PID.TID 0000.0001) %MON surfExpanfCori_min           =  -1.4265546244797E-04
(PID.TID 0000.0001) %MON surfExpanfCori_mean          =  -1.2347858075529E-21
(PID.TID 0000.0001) %MON surfExpanfCori_sd            =   9.6599226301547E-05
(PID.TID 0000.0001) %MON surfExpanfCoriG_max          =   1.4151032568025E-04
(PID.TID 0000.0001) %MON surfExpanfCoriG_min          =  -1.4362679550910E-04
(PID.TID 0000.0001) %MON surfExpanfCoriG_mean         =  -3.5906698877274E-06
(PID.TID 0000.0001) %MON surfExpanfCoriG_sd           =   9.6548915696244E-05
(PID.TID 0000.0001) %MON surfExpanfCoriCos_max        =   1.4575362704741E-04
(PID.TID 0000.0001) %MON surfExpanfCoriCos_min        =   3.0322354601388E-05
(PID.TID 0000.0001) %MON surfExpanfCoriCos_mean       =   1.0288600773632E-04
(PID.TID 0000.0001) %MON surfExpanfCoriCos_sd         =   3.6784304327266E-05
(PID.TID 0000.0001) INI_CG2D: CG2D normalisation factor =  6.5682677425711703E-05
(PID.TID 0000.0001) 
(PID.TID 0000.0001)  MDS_READ_FIELD: opening global file: lev_t.bin
(PID.TID 0000.0001) // =======================================================
(PID.TID 0000.0001) // Field Initial Temperature at iteration          1
(PID.TID 0000.0001) // CMIN =         -1.900000000000000E+00
(PID.TID 0000.0001) // CMAX =          2.973338890075684E+01
(PID.TID 0000.0001) // CINT =          1.171606996324327E+00
(PID.TID 0000.0001) // SYMBOLS (CMIN->CMAX): -abcdefghijklmnopqrstuvwxyz+
(PID.TID 0000.0001) //                  0.0: .
(PID.TID 0000.0001) // RANGE I (Lo:Hi:Step):(   1:  90:   1)
(PID.TID 0000.0001) // RANGE J (Lo:Hi:Step):(  40:   1:  -1)
(PID.TID 0000.0001) // RANGE K (Lo:Hi:Step):(   1:   1:   1)
(PID.TID 0000.0001) // =======================================================
(PID.TID 0000.0001) K =   1
(PID.TID 0000.0001)                I=10      I=20      I=30      I=40      I=50      I=60      I=70      I=80      I=90
(PID.TID 0000.0001) |--J--|123456789|123456789|123456789|123456789|123456789|123456789|123456789|123456789|123456789|
(PID.TID 0000.0001)     40 bccdd.baa----abdedd..................................................................bbbbb
(PID.TID 0000.0001)     39 ccdddddccbbbaa...ed.....................................................----........bbbbbb
(PID.TID 0000.0001)     38 fffgfedeedddc...........................................................-----......cbbbcde
(PID.TID 0000.0001)     37 ghh..................................................................bc...bbc...edeed.defg
(PID.TID 0000.0001)     36 hh.........................................ddcb....................dcccbabccdd.eefghhihhih
(PID.TID 0000.0001)     35 hh.................................aaab..dddeddd...ffggg...........ccc....ddeeeffghijjjjih
(PID.TID 0000.0001)     34 ...................................babb.deeeeeee.ffffgghh..................ccdffghijkkkj..
(PID.TID 0000.0001)     33 ....................................accdddeeeeefffffgghhiii.................bcfijkkllllkk.
(PID.TID 0000.0001)     32 ....................................bdddeffgffgghhhhhiiijjj................dccglmnmmmmlll.
(PID.TID 0000.0001)     31 ....................................fghiiiijjjjjjkkkkklllkk..............ikkjjmooooonnmm..
(PID.TID 0000.0001)     30 ...................................mmmnmmmmmmmmmmmmmnnnnnmm............moqrrrqrqqqpppooo..
(PID.TID 0000.0001)     29 .................................pqqqqqpppppppppoppoppppponm...........ssssssrrrrrqqqqpp..
(PID.TID 0000.0001)     28 ...............................prssssrrrsssrrrrrrrrrrrrrqqpoo.........uttssstssrssrrrqqq..
(PID.TID 0000.0001)     27 ..............vv..............stuttuuuuutuuuuuuuuuuttttssrrqqq...stuu.vvvuuuuutttttsss....
(PID.TID 0000.0001)     26 ..............vvv...........uuvvvvvwwwwwwwwvvvvvvvvvuuutttsssttv.uuvxxwwwwwwvvvvuuttsr....
(PID.TID 0000.0001)     25 ..............wwwx...xxx...vvvxxxxxyyxxxxxxxxxwwwwwvvvvvuuuuuvwwx...xxxxxxwwwwwwvvutsr....
(PID.TID 0000.0001)     24 ............wwwwxyy.xxyy...wxx.yyyyyyyyyyyxxxxxxxxwwwwwwwvvwwxxyywww.xxxxxxxxxxwwwvvur....
(PID.TID 0000.0001)     23 ............xxxyyyz.xyyy...xxx..yyyyzzyyyyyyyyxxxxxxxxxwwwwwxxxwwwwwx....vwxxxxwwwwwvu....
(PID.TID 0000.0001)     22 w...........xxyyyzyyyyyz...xx.yyzzzzzzzzzzzzzyyzyyyyyyxxwwxxxxwvvvwwxw......yyyyxxxxxxwxxw
(PID.TID 0000.0001)     21 xxx........xxxxyyzzzzzzz+.....zyzzzzzzz++zzzzyyyyyyyyxxwvvwwwwvvvvvvvu........yyyyyyyyyxxx
(PID.TID 0000.0001)     20 xww.......xyyyyxyyzzzzzz+......z.zzzzz+++zzzzzzyyyyyxxxxwvwxwvuuuuuuut.........yyyyxxxxwww
(PID.TID 0000.0001)     19 vvv.......yyyyxwwxyzyyzzzzz...zzz.....++++++z++z+zzzyyyyxxxxwwvvvvvvvu...........yyxxxwwww
(PID.TID 0000.0001)     18 uut.......zzyyywwxyzyyyyzzyzzzzzz...z+z++++zz+++++++zzzyyyyxxwwwvvvvvtt..........yyxxwvvwv
(PID.TID 0000.0001)     17 uus.......z.yyyyyyxyzzyyyyyyyzz.....yzzzzzzzzzzzzzzzzzzyyyyxxwwvuuvvuut.........yyyxxwttvu
(PID.TID 0000.0001)     16 utr......yy.zyyyyxxxxxxxwxxxxy.......yyyyyyyyyyyyyyyyyyyyyyyxxwvvvuuutts........xyyyxwvuuu
(PID.TID 0000.0001)     15 ttrr....xxx.xxxwxwwwwvwwvvvww.........xwxxxxxxxxxxxxxxxxxyyyxwwwvvuttssrr......wxxxxxwwvuu
(PID.TID 0000.0001)     14 ttsq....xyxwwxwvwwwvutuuuuuuu.........wwvwwwwvwvvwwwvwvvwwwwwwvvvuuutssrr.....vwwwwwwwvvvu
(PID.TID 0000.0001)     13 tttr....wwwvvvtttuuuutttssttt.........vvvuuuuuuutttttuuuuuvwwwuuuttttssrr....uvvvvvvvvvvut
(PID.TID 0000.0001)     12 sssssstttutssssrrrrrstrqqrrssqqrrq....uuttssssrrrrrrrrrrrstttssssrssrrqp.....uuuttssttssss
(PID.TID 0000.0001)     11 poprsssrqqqqqrqppooopqpoppppppppppp..sssrrr.rqpppqqqqppppqqqoppqqqqrqqpp....prsrqqqqqppppq
(PID.TID 0000.0001)     10 lllmoooonmnnmnnnnmmmmmmlmmlllmnnnnon.qqqppp.ppppppooooooooonmnnnonnooooo..nmoponnmnnnnnmll
(PID.TID 0000.0001)      9 ihhiiiihhhhhhiiihiiiiihhhiiiijjkkmnllnnnnn.mmmmnnnnmmmmnnmmlklllllklllll.mllmmllkjiijjihhi
(PID.TID 0000.0001)      8 eeeeeeeedefgggffeeffggffffggghiiiijjijklklkkkkkkkklllkkkkjjiiijkjjjjjjkj.kkjjiihggffffedde
(PID.TID 0000.0001)      7 cccccddeedddefeddddddddddefeefffffgggghiiiiiijjjihhgggghhhhhghhhhhhhiiiihiihhgfeddddddcccc
(PID.TID 0000.0001)      6 abbcccddcccccdddddccdddddddccddddddeeeeffggggghhgeddddddeeeeeeefggggghggggffeedccbbbbbbbba
(PID.TID 0000.0001)      5 bbbcccccccccccccccccccccbbccccdddddddcccddeeddeedcbbbbbbccccccdddeeeeeddddddccbbbbaaaaaaab
(PID.TID 0000.0001)      4 bbbbbbbaaabbbbbbbbbbbbaabbabbbbcbbbbbbbbbbbbbbbbbbbabbaaabbbbbbbbbbbbbbbbb..a--aaabbbaaabb
(PID.TID 0000.0001)      3 bbbbaaa-a-............................bbaaaaaaaaaaaaaaaaaaaaaaaaaaaaaaaab..aaaaaaaabbbaaaa
(PID.TID 0000.0001)      2 ..........................................baaaaaaaaaaaa-------aa..aaaa.....aaaaaaaaaaaa...
(PID.TID 0000.0001)      1 ..........................................................................................
(PID.TID 0000.0001) // =======================================================
(PID.TID 0000.0001) // END OF FIELD                                          =
(PID.TID 0000.0001) // =======================================================
(PID.TID 0000.0001) 
(PID.TID 0000.0001)  MDS_READ_FIELD: opening global file: lev_s.bin
(PID.TID 0000.0001) // =======================================================
(PID.TID 0000.0001) // Field Initial Salinity at iteration          1
(PID.TID 0000.0001) // CMIN =          2.975276947021484E+01
(PID.TID 0000.0001) // CMAX =          3.747562789916992E+01
(PID.TID 0000.0001) // CINT =          2.860317936650029E-01
(PID.TID 0000.0001) // SYMBOLS (CMIN->CMAX): -abcdefghijklmnopqrstuvwxyz+
(PID.TID 0000.0001) //                  0.0: .
(PID.TID 0000.0001) // RANGE I (Lo:Hi:Step):(   1:  90:   1)
(PID.TID 0000.0001) // RANGE J (Lo:Hi:Step):(  40:   1:  -1)
(PID.TID 0000.0001) // RANGE K (Lo:Hi:Step):(   1:   1:   1)
(PID.TID 0000.0001) // =======================================================
(PID.TID 0000.0001) K =   1
(PID.TID 0000.0001)                I=10      I=20      I=30      I=40      I=50      I=60      I=70      I=80      I=90
(PID.TID 0000.0001) |--J--|123456789|123456789|123456789|123456789|123456789|123456789|123456789|123456789|123456789|
(PID.TID 0000.0001)     40 qrrrr.oonnooopqtutt..................................................................mnnop
(PID.TID 0000.0001)     39 rssrrrrrrrqqpn...ut.....................................................mmmm........opqqqr
(PID.TID 0000.0001)     38 ssrrqqqqrrqpo...........................................................lkkll......onoqrrs
(PID.TID 0000.0001)     37 ssr..................................................................hg...lln...qppqr.rrrs
(PID.TID 0000.0001)     36 rr.........................................lkji....................feeegikmoop.pqrssssssss
(PID.TID 0000.0001)     35 rr.................................kkkk..lllllki...jijjj...........aa-....opqrrrrrrrssttss
(PID.TID 0000.0001)     34 ...................................jlll.kklllllk.ijkkkjih..................hlpqrqrrsstts..
(PID.TID 0000.0001)     33 ....................................iklkkkkkkkkkjkkjjjjjjii.................jmprrsstttttt.
(PID.TID 0000.0001)     32 ....................................iklllkllllllllkkkkkkkji................gilpstuuttuuut.
(PID.TID 0000.0001)     31 ....................................lmnonnnnoooonnmmmmllkjj..............loopqtvvvuuuuuu..
(PID.TID 0000.0001)     30 ...................................pppppppqqqqpppoooonnmlkk............ptvxwwvvwvvvvvvvu..
(PID.TID 0000.0001)     29 .................................pqqrqqqqqqrrrqqppqqqpponmll...........vxxxxxxwwwwwxwwxw..
(PID.TID 0000.0001)     28 ...............................prrrrrqqrrrrrsrrsrssssssrqonmm.........wxxxxxxxyyyyyyyyxx..
(PID.TID 0000.0001)     27 ..............xx..............prrrrrrrrrssssssstttssssssrqpoop...uwww.wwxxxyyy++zzzzyy....
(PID.TID 0000.0001)     26 ..............wxx...........ppqrrrrrrsssrrstsstttssrrrrrrrqppqqp.wwwvvwwwwwxyy+++zzyxw....
(PID.TID 0000.0001)     25 ..............wxxv...kkk...ooopqrrrrrssrrrrrrrssssqqpppppppppppoo...vvutuuvvwxyyyxxvvu....
(PID.TID 0000.0001)     24 ............uvvwwur.lmlk...nmm.pqqqqrrrrrqqqqrrqqrpppppooooonmmmnooo.uuuuuuttuvvvuvuut....
(PID.TID 0000.0001)     23 ............vvuvtqp.lmml...mln..ppppqpqppppppqpppppppppqppponnnnnoopm....xvuuuvvvvuuut....
(PID.TID 0000.0001)     22 r...........vuttsqqpnppn...mm.oppqqrrqqqqqqppppqqrrrqqqrrppppoopooomjj......uuvvvvvuttssrr
(PID.TID 0000.0001)     21 qmm........ttsssssssrsqon.....opqqqqqqqrrrrqqqssssssrrrrrrrrpqqqppomll........tvvvvuttssrr
(PID.TID 0000.0001)     20 sqq.......sttssrrsrrrrpol......p.qrqpqrrrrrrrstttttsssrrsssrqrrrrqqqpo.........wwwvvvuuutt
(PID.TID 0000.0001)     19 tsr.......ssssrrrrpppppnmmm...oqq.....qrqqsrrstttuuuttssttssrrssrrrrqq...........wwwvuvvvv
(PID.TID 0000.0001)     18 wut.......ssrrrrrqppppppppoooorrr...poqqqprrrttttuuutuuuuuutttttttutsss..........yyxwwxwxx
(PID.TID 0000.0001)     17 wwu.......s.rrrrrrqppppqqqqqqqr.....rrsrqrsssuusrtuuuvvvwwvvvuuuuutttss.........xyzyyyyxxx
(PID.TID 0000.0001)     16 vvt......ss.qrrssrqrqpqrrrrrrr.......ssrrstsstusrsuuuvwwwwxxwwvvvuttttsr........yz+zzzxwww
(PID.TID 0000.0001)     15 utss....stt.rrssstttsrrsrstsr.........ssstttssttsuuttuvvvvwxwwwwwuttsssrr......xyyyyxyyxwv
(PID.TID 0000.0001)     14 utts....sstrrssstuuuuuuuuuutt.........stttuutttttttuttttttuvvvvvvutsrqrrr.....vxxwwwwxwvwv
(PID.TID 0000.0001)     13 uuut....ttttttttuuuuuvtuuuuuu.........ttttuutttttttuutsssstttttstsqrqqppp....uwwwvuvvvutvv
(PID.TID 0000.0001)     12 ttttttttttttttttttttttssuuuuutuuut....tttttttttttsssssrrrrrrrqqqqqppppoo.....rvvuuttttttuu
(PID.TID 0000.0001)     11 rqsttttttttuuttttsssssrrstttttttsss..ttttts.tsssrrrrqqqqqppppoonnooooooo....oruttttsssrqrs
(PID.TID 0000.0001)     10 pppqrssrqqrqpqrssrrqqqqqqrrrrrrrrrrs.sssssr.rssrrqqpppppppooooonnnoooonn..moqrrrqqqqqqqqqq
(PID.TID 0000.0001)      9 oonooooooooonnnooooooooooppppppqqqqqrrrqrq.pppqqqqqppppppppppoooooooooll.lmoqqqqppooooopoo
(PID.TID 0000.0001)      8 nnnoonooooooonnnnnnnoooonoonoooppopqqqqqqqppopppqqqpppppppppppppppooopon.lnopppoooonnnnooo
(PID.TID 0000.0001)      7 ooooooooooopponnnooooooonnnnnonnooooooooopppppppoooooooooopppppppppoopqnnmnoooonnnonnnnnno
(PID.TID 0000.0001)      6 oooonnoonnnnooooooooooooonnnnnnnnnnnnnnnnoooopppooooooooooooooppppppppppoooooooonnnnnmnnnn
(PID.TID 0000.0001)      5 oooonnnnnnnnnnnnnnnnnoooooonnnnnnonnnnnnnnnoooooooooooonnnnnnooooooopoooonoooonnnnnnnooooo
(PID.TID 0000.0001)      4 oooonnnooonnnnnnnnnnnnnnoooooonnnooooonnnooooooooppponnnnmmmnnnnmnnoonnnnn..nnnooooooooooo
(PID.TID 0000.0001)      3 ooonnnnnnn............................nnoooooonnooooonnnnnnnoonnnnnnnnmmm..ooopooooooooooo
(PID.TID 0000.0001)      2 ..........................................pppooooonnnnnnoooppppo..nnnn.....qqqpppoooooo...
(PID.TID 0000.0001)      1 ..........................................................................................
(PID.TID 0000.0001) // =======================================================
(PID.TID 0000.0001) // END OF FIELD                                          =
(PID.TID 0000.0001) // =======================================================
(PID.TID 0000.0001) 
(PID.TID 0000.0001) Start initial hydrostatic pressure computation
(PID.TID 0000.0001) Pressure is predetermined for buoyancyRelation OCEANIC
(PID.TID 0000.0001) 
(PID.TID 0000.0001)  MDS_READ_FIELD: opening global file: trenberth_taux.bin
(PID.TID 0000.0001)  MDS_READ_FIELD: opening global file: trenberth_tauy.bin
(PID.TID 0000.0001)  MDS_READ_FIELD: opening global file: ncep_qnet.bin
(PID.TID 0000.0001)  MDS_READ_FIELD: opening global file: lev_sst.bin
(PID.TID 0000.0001)  MDS_READ_FIELD: opening global file: lev_sss.bin
(PID.TID 0000.0001) // =======================================================
(PID.TID 0000.0001) // Model current state
(PID.TID 0000.0001) // =======================================================
(PID.TID 0000.0001) 
S/R EXTERNAL_FIELDS_LOAD: Reading new data:   12    1         0  0.000000000000E+00
(PID.TID 0000.0001)  MDS_READ_FIELD: opening global file: trenberth_taux.bin
(PID.TID 0000.0001)  MDS_READ_FIELD: opening global file: trenberth_taux.bin
(PID.TID 0000.0001)  MDS_READ_FIELD: opening global file: trenberth_tauy.bin
(PID.TID 0000.0001)  MDS_READ_FIELD: opening global file: trenberth_tauy.bin
(PID.TID 0000.0001)  MDS_READ_FIELD: opening global file: ncep_qnet.bin
(PID.TID 0000.0001)  MDS_READ_FIELD: opening global file: ncep_qnet.bin
(PID.TID 0000.0001)  MDS_READ_FIELD: opening global file: lev_sst.bin
(PID.TID 0000.0001)  MDS_READ_FIELD: opening global file: lev_sst.bin
(PID.TID 0000.0001)  MDS_READ_FIELD: opening global file: lev_sss.bin
(PID.TID 0000.0001)  MDS_READ_FIELD: opening global file: lev_sss.bin
time,SST,SSS,fu,fv,Q,E-P,i0,i1,a,b =   0.0000E+00  5.3151E-02  3.4364E+01 -4.0500E-02 -6.3753E-02  2.6510E+02  0.0000E+00    12     1  5.0000E-01  5.0000E-01
time,fu0,fu1,fu =   0.0000E+00 -4.5368E-02 -3.5633E-02 -4.0500E-02  5.000000000000000E-01  5.000000000000000E-01
(PID.TID 0000.0001)  MDS_READ_FIELD: opening file: xx_hfluxm.0000000000.001.001.data
 cg2d: Sum(rhs),rhsMax =   1.47867829092263E-14  2.54952604282385E+00
time,SST,SSS,fu,fv,Q,E-P,i0,i1,a,b =   8.6400E+04  1.1350E-01  3.4387E+01 -4.0176E-02 -6.3320E-02  2.6514E+02  0.0000E+00    12     1  5.3333E-01  4.6667E-01
time,fu0,fu1,fu =   8.6400E+04 -4.5368E-02 -3.5633E-02 -4.0176E-02  5.333333333333333E-01  4.666666666666667E-01
 cg2d: Sum(rhs),rhsMax =   1.11299858218672E-14  2.62443215722193E+00
time,SST,SSS,fu,fv,Q,E-P,i0,i1,a,b =   1.7280E+05  1.7385E-01  3.4410E+01 -3.9851E-02 -6.2886E-02  2.6519E+02  0.0000E+00    12     1  5.6667E-01  4.3333E-01
time,fu0,fu1,fu =   1.7280E+05 -4.5368E-02 -3.5633E-02 -3.9851E-02  5.666666666666667E-01  4.333333333333333E-01
 cg2d: Sum(rhs),rhsMax =  -1.84852133600089E-14  2.39923446842520E+00
time,SST,SSS,fu,fv,Q,E-P,i0,i1,a,b =   2.5920E+05  2.3421E-01  3.4434E+01 -3.9527E-02 -6.2453E-02  2.6523E+02  0.0000E+00    12     1  6.0000E-01  4.0000E-01
time,fu0,fu1,fu =   2.5920E+05 -4.5368E-02 -3.5633E-02 -3.9527E-02  6.000000000000000E-01  4.000000000000000E-01
 cg2d: Sum(rhs),rhsMax =   1.53904666788662E-14  2.21574359161623E+00
time,SST,SSS,fu,fv,Q,E-P,i0,i1,a,b =   3.4560E+05  2.9456E-01  3.4457E+01 -3.9202E-02 -6.2020E-02  2.6528E+02  0.0000E+00    12     1  6.3333E-01  3.6667E-01
time,fu0,fu1,fu =   3.4560E+05 -4.5368E-02 -3.5633E-02 -3.9202E-02  6.333333333333333E-01  3.666666666666667E-01
 cg2d: Sum(rhs),rhsMax =   3.35009797680641E-14  2.00995911979856E+00
time,SST,SSS,fu,fv,Q,E-P,i0,i1,a,b =   4.3200E+05  3.5491E-01  3.4481E+01 -3.8878E-02 -6.1587E-02  2.6532E+02  0.0000E+00    12     1  6.6667E-01  3.3333E-01
time,fu0,fu1,fu =   4.3200E+05 -4.5368E-02 -3.5633E-02 -3.8878E-02  6.666666666666666E-01  3.333333333333334E-01
 cg2d: Sum(rhs),rhsMax =   2.07056594092592E-14  1.78612610578357E+00
time,SST,SSS,fu,fv,Q,E-P,i0,i1,a,b =   5.1840E+05  4.1526E-01  3.4504E+01 -3.8553E-02 -6.1154E-02  2.6537E+02  0.0000E+00    12     1  7.0000E-01  3.0000E-01
time,fu0,fu1,fu =   5.1840E+05 -4.5368E-02 -3.5633E-02 -3.8553E-02  7.000000000000000E-01  3.000000000000000E-01
 cg2d: Sum(rhs),rhsMax =  -6.20337115009306E-14  1.55419822324421E+00
time,SST,SSS,fu,fv,Q,E-P,i0,i1,a,b =   6.0480E+05  4.7561E-01  3.4527E+01 -3.8229E-02 -6.0721E-02  2.6541E+02  0.0000E+00    12     1  7.3333E-01  2.6667E-01
time,fu0,fu1,fu =   6.0480E+05 -4.5368E-02 -3.5633E-02 -3.8229E-02  7.333333333333333E-01  2.666666666666667E-01
 cg2d: Sum(rhs),rhsMax =   4.63240557024847E-14  1.32823756032538E+00
time,SST,SSS,fu,fv,Q,E-P,i0,i1,a,b =   6.9120E+05  5.3596E-01  3.4551E+01 -3.7904E-02 -6.0288E-02  2.6546E+02  0.0000E+00    12     1  7.6667E-01  2.3333E-01
time,fu0,fu1,fu =   6.9120E+05 -4.5368E-02 -3.5633E-02 -3.7904E-02  7.666666666666667E-01  2.333333333333333E-01
 cg2d: Sum(rhs),rhsMax =  -7.42461647718073E-15  1.15613808772775E+00
time,SST,SSS,fu,fv,Q,E-P,i0,i1,a,b =   7.7760E+05  5.9632E-01  3.4574E+01 -3.7580E-02 -5.9855E-02  2.6550E+02  0.0000E+00    12     1  8.0000E-01  2.0000E-01
time,fu0,fu1,fu =   7.7760E+05 -4.5368E-02 -3.5633E-02 -3.7580E-02  8.000000000000000E-01  2.000000000000000E-01
 cg2d: Sum(rhs),rhsMax =   2.96984659087229E-15  1.08384893719177E+00
(PID.TID 0000.0001) %CHECKPOINT        10 ckptA
(PID.TID 0000.0001)  MDS_READ_FIELD: opening global file: lev_t_an.bin
 --> objf_test(bi,bj)   =  0.000000000000000E+00
 --> objf_tracer(bi,bj) =  0.000000000000000E+00
 --> objf_atl(bi,bj)    =  0.000000000000000E+00
 --> objf_temp_tut(bi,bj)   =  0.620487691951800E+01
 --> objf_hflux_tut(bi,bj) =  0.341013848345626E-08
  local fc =  0.620487692633828E+01
 global fc =  0.620487692633828E+01
 ph-check fcpertplus =   6.20487693
(PID.TID 0000.0001)  MDS_READ_FIELD: opening file: xx_hfluxm.0000000000.001.001.data
 ph-check fcpertminus =   6.20487645
(PID.TID 0000.0001)  MDS_READ_FIELD: opening file: xx_hfluxm.0000000000.001.001.data
(PID.TID 0000.0001)  MDS_READ_FIELD: opening global file: bathymetry.bin
(PID.TID 0000.0001) // =======================================================
(PID.TID 0000.0001) // Field Model R_low (ini_masks_etc) at iteration          1
(PID.TID 0000.0001) // CMIN =         -5.200000000000000E+03
(PID.TID 0000.0001) // CMAX =         -1.200000000000000E+02
(PID.TID 0000.0001) // CINT =          1.881481481481482E+02
(PID.TID 0000.0001) // SYMBOLS (CMIN->CMAX): -abcdefghijklmnopqrstuvwxyz+
(PID.TID 0000.0001) //                  0.0: .
(PID.TID 0000.0001) // RANGE I (Lo:Hi:Step):(  -1:  92:   1)
(PID.TID 0000.0001) // RANGE J (Lo:Hi:Step):(  42:  -1:  -1)
(PID.TID 0000.0001) // RANGE K (Lo:Hi:Step):(   1:   1:   1)
(PID.TID 0000.0001) // =======================================================
(PID.TID 0000.0001) K =   1
(PID.TID 0000.0001) //                I=8       I=18      I=28      I=38      I=48      I=58      I=68      I=78      I=88
(PID.TID 0000.0001) // |--J--|101234567|901234567|901234567|901234567|901234567|901234567|901234567|901234567|901234567|9012
(PID.TID 0000.0001) //     42 ............................................zyxxmgfeeefefgimnpwwwy..+zyy.....yyyyoiiihhz+.....
(PID.TID 0000.0001) //     41 ..............................................................................................
(PID.TID 0000.0001) //     40 qlloqz+.++++zzz++++++..................................................................+++qllo
(PID.TID 0000.0001) //     39 slloorzzzzzzzzz+...++.....................................................yxxz........+zvusllo
(PID.TID 0000.0001) //     38 mqpporzzzzzz+++...........................................................zxxy+......zyyvsmqpp
(PID.TID 0000.0001) //     37 mmmuz..................................................................++...zy+...yttyy.+smmmu
(PID.TID 0000.0001) //     36 utt+.........................................mm++....................+++++++znmm.yoowssvuyutt+
(PID.TID 0000.0001) //     35 ++++.................................+zzz..rrmmkk+...+gghn...........+++....+nmiijlsoopuww++++
(PID.TID 0000.0001) //     34 .....................................+vvy.ggqyxv+y.ccdffhim..................+nihhikkihhm+....
(PID.TID 0000.0001) //     33 +.....................................uuz---h------aaabdefin+.................zqvddflifffw+...
(PID.TID 0000.0001) //     32 +.....................................+t----h---------acdfgnn................+++gdffkofffm+...
(PID.TID 0000.0001) //     31 ......................................-----ad--------abddegil..............qbaafccdhqqgddm....
(PID.TID 0000.0001) //     30 .....................................f----b--b------------abd............zfbb--fbcdosjfddi....
(PID.TID 0000.0001) //     29 ...................................tu----e---fjg----------abdf...........eaac--abfmijaadgi....
(PID.TID 0000.0001) //     28 .................................+xfl-------------------bdedefi.........qbaa---aemfbbaaejz....
(PID.TID 0000.0001) //     27 ................xx..............+wfgfpf--------eallc---bbbccefgi...+++x.qb-----akfa---ah......
(PID.TID 0000.0001) //     26 ................xnn...........+vd---dna------a--aicfna---aabdfghku.++xssuy-----bgca---ci......
(PID.TID 0000.0001) //     25 ................iiik...oo+...+ivd---doaa-bc--ilglf--aa---aabcghhkll...ssum+xaaacjbaabdjk......
(PID.TID 0000.0001) //     24 ..............xnheeft.kkk+...uii.aagdm----aa-----a-------bbbcdefjljjju.zummwwbbchba--abi......
(PID.TID 0000.0001) //     23 ..............xgheefp.iikw...uuw..fihi----fed-----eaaa--bbbbcdfflkjiiiq....zykccefa--abd......
(PID.TID 0000.0001) //     22 uss...........bbelffslffkk...zz.wqkeeqoheccdfa-----egabaabcdddegghliiiqq......xeeehheehccquss.
(PID.TID 0000.0001) //     21 bbeir........nbbcdjhqdddiiz.....wqfeelgghmedea-----bibbcddddddefghklnqoo........ieeflhgcccbbei
(PID.TID 0000.0001) //     20 bbder.......ldcccdgkccccidd......z.vkkktqqhegg----aaacddddddddefghkiiijl.........nhfa--gfcbbde
(PID.TID 0000.0001) //     19 cdaaf.......kddosggpaaaibbccx...+z+.....r+nlec---agaaabcddccddefikfgffff...........d---cjhcdaa
(PID.TID 0000.0001) //     18 d---d.......kglggvliaaaibbcaaeaiv++...qqzolhecccfdgkaabcdfccdeeikgfgffdd+..........d---djhd---
(PID.TID 0000.0001) //     17 c---c.......l.feewlfaaaoaa----aiv.....qqnllslmlofcdbaacceffffhhligfigeddj.........hd---ckhc---
(PID.TID 0000.0001) //     16 ba--c......tn.ddgnlfdaaqa-----lv.......vnllvllnwv--accivomfffhilhgfffeddjf........re--aeigba--
(PID.TID 0000.0001) //     15 b--dpz....+ll.ccdfhmdddlc----av.........otsxoomv---abccddfihgijkhgfffeejfff......+fd---ckfb--d
(PID.TID 0000.0001) //     14 c--mcl....weeqbaafilkfend--eagy.........hhstofft----aacdheefijkmjhhjijiffff.....zlfdaaadlfc--m
(PID.TID 0000.0001) //     13 cclbbg....nccobaaiddgkffqrqeaal.........eeutqfft------aaceeffhijlkjhhigfffq....+jgfodccflhcclb
(PID.TID 0000.0001) //     12 hgaaacw+iiicclemhdddfliigfdcaabfaaaz....ccsurqpc--------abcifffikiiihhggff.....kbbbdfffglhhgaa
(PID.TID 0000.0001) //     11 gcaaacbbifccennhbbdefnihgfdccaaaa----..dcccnt.ncab-------aabcdfilhggjiggff....l---abcefjlkgcaa
(PID.TID 0000.0001) //     10 fcaaccbdaacfrllfbbdegkmmljhfdddba----d.dcccfx.nyrebaba----abcdgilhfeegijgi..+w--aa-abcfilkfcaa
(PID.TID 0000.0001) //      9 ffcdcccaaaoqsolfdeehikihhlllgfedcccccdmdcccf.vyfaaaaaaaa--abdehmjhfeeefglv.++w-----abcdfklffcd
(PID.TID 0000.0001) //      8 iffjklcaafddffeeccvznkfffhhhlkjifgjkkfeeddfsyvcaaaaaaccdcccdfgjligedbbceg+.++xffn--cfddefliffj
(PID.TID 0000.0001) //      7 mqnnbbkkf--bmbaabbgtykfddeffeeddccdfhlffeelfbaaaaaacddeghgjgjlligeddaaabedfiiiiiisvkfkecchmqnn
(PID.TID 0000.0001) //      6 ca-------------aabcelttdddedddddccccdfkkiiffbaaaabcdgimmkmefecaaabbbaaabbdfiiiiispmmregifcca--
(PID.TID 0000.0001) //      5 -------a-------aaccehhhiddeddddddcccdfiikomodddefffmlmigedccaaaaaaaababbbdfiijsqgeccccbaa-----
(PID.TID 0000.0001) //      4 -ahebaabbbbbeihffgijiiiijpywnnpokkomkiiijmmmolkommmgffeeedccaaaaaabbcccefhmz..yjgeccccbaa--ahe
(PID.TID 0000.0001) //      3 ffhhrpjiiwyy............................yxotmjjjjgfeeeeeeddeffffheddeghjkyy..yqjgeddccdbbgffhh
(PID.TID 0000.0001) //      2 ............................................zyxxmgfeeefefgimnpwwwy..+zyy.....yyyyoiiihhz+.....
(PID.TID 0000.0001) //      1 ..............................................................................................
(PID.TID 0000.0001) //      0 qlloqz+.++++zzz++++++..................................................................+++qllo
(PID.TID 0000.0001) //     -1 slloorzzzzzzzzz+...++.....................................................yxxz........+zvusllo
(PID.TID 0000.0001) // =======================================================
(PID.TID 0000.0001) // END OF FIELD                                          =
(PID.TID 0000.0001) // =======================================================
(PID.TID 0000.0001) 
(PID.TID 0000.0001) // =======================================================
(PID.TID 0000.0001) // Field Model Ro_surf (ini_masks_etc) at iteration          1
(PID.TID 0000.0001) // CMIN =          1.000000000000000E+32
(PID.TID 0000.0001) // CMAX =         -1.000000000000000E+32
(PID.TID 0000.0001) // CINT =          0.000000000000000E+00
(PID.TID 0000.0001) // SYMBOLS (CMIN->CMAX): -abcdefghijklmnopqrstuvwxyz+
(PID.TID 0000.0001) //                  0.0: .
(PID.TID 0000.0001) // RANGE I (Lo:Hi:Step):(  -1:  92:   1)
(PID.TID 0000.0001) // RANGE J (Lo:Hi:Step):(  42:  -1:  -1)
(PID.TID 0000.0001) // RANGE K (Lo:Hi:Step):(   1:   1:   1)
(PID.TID 0000.0001) // =======================================================
(PID.TID 0000.0001) // =======================================================
(PID.TID 0000.0001) // END OF FIELD                                          =
(PID.TID 0000.0001) // =======================================================
(PID.TID 0000.0001) 
(PID.TID 0000.0001) // =======================================================
(PID.TID 0000.0001) // Field hFacC at iteration          1
(PID.TID 0000.0001) // CMIN =          1.000000000000000E+00
(PID.TID 0000.0001) // CMAX =          1.000000000000000E+00
(PID.TID 0000.0001) // CINT =          0.000000000000000E+00
(PID.TID 0000.0001) // SYMBOLS (CMIN->CMAX): -abcdefghijklmnopqrstuvwxyz+
(PID.TID 0000.0001) //                  0.0: .
(PID.TID 0000.0001) // RANGE I (Lo:Hi:Step):(  -1:  92:   1)
(PID.TID 0000.0001) // RANGE J (Lo:Hi:Step):(  42:  -1:  -1)
(PID.TID 0000.0001) // RANGE K (Lo:Hi:Step):(   1:   1:   1)
(PID.TID 0000.0001) // =======================================================
(PID.TID 0000.0001) // =======================================================
(PID.TID 0000.0001) // END OF FIELD                                          =
(PID.TID 0000.0001) // =======================================================
(PID.TID 0000.0001) 
(PID.TID 0000.0001) // =======================================================
(PID.TID 0000.0001) // Field hFacW at iteration          1
(PID.TID 0000.0001) // CMIN =          1.000000000000000E+00
(PID.TID 0000.0001) // CMAX =          1.000000000000000E+00
(PID.TID 0000.0001) // CINT =          0.000000000000000E+00
(PID.TID 0000.0001) // SYMBOLS (CMIN->CMAX): -abcdefghijklmnopqrstuvwxyz+
(PID.TID 0000.0001) //                  0.0: .
(PID.TID 0000.0001) // RANGE I (Lo:Hi:Step):(  -1:  92:   1)
(PID.TID 0000.0001) // RANGE J (Lo:Hi:Step):(  42:  -1:  -1)
(PID.TID 0000.0001) // RANGE K (Lo:Hi:Step):(   1:   1:   1)
(PID.TID 0000.0001) // =======================================================
(PID.TID 0000.0001) // =======================================================
(PID.TID 0000.0001) // END OF FIELD                                          =
(PID.TID 0000.0001) // =======================================================
(PID.TID 0000.0001) 
(PID.TID 0000.0001) // =======================================================
(PID.TID 0000.0001) // Field hFacS at iteration          1
(PID.TID 0000.0001) // CMIN =          1.000000000000000E+00
(PID.TID 0000.0001) // CMAX =          1.000000000000000E+00
(PID.TID 0000.0001) // CINT =          0.000000000000000E+00
(PID.TID 0000.0001) // SYMBOLS (CMIN->CMAX): -abcdefghijklmnopqrstuvwxyz+
(PID.TID 0000.0001) //                  0.0: .
(PID.TID 0000.0001) // RANGE I (Lo:Hi:Step):(  -1:  92:   1)
(PID.TID 0000.0001) // RANGE J (Lo:Hi:Step):(  42:  -1:  -1)
(PID.TID 0000.0001) // RANGE K (Lo:Hi:Step):(   1:   1:   1)
(PID.TID 0000.0001) // =======================================================
(PID.TID 0000.0001) // =======================================================
(PID.TID 0000.0001) // END OF FIELD                                          =
(PID.TID 0000.0001) // =======================================================
(PID.TID 0000.0001) 
(PID.TID 0000.0001) %MON surfExpanfCori_max           =   1.4265546244797E-04
(PID.TID 0000.0001) %MON surfExpanfCori_min           =  -1.4265546244797E-04
(PID.TID 0000.0001) %MON surfExpanfCori_mean          =  -1.2347858075529E-21
(PID.TID 0000.0001) %MON surfExpanfCori_sd            =   9.6599226301547E-05
(PID.TID 0000.0001) %MON surfExpanfCoriG_max          =   1.4151032568025E-04
(PID.TID 0000.0001) %MON surfExpanfCoriG_min          =  -1.4362679550910E-04
(PID.TID 0000.0001) %MON surfExpanfCoriG_mean         =  -3.5906698877274E-06
(PID.TID 0000.0001) %MON surfExpanfCoriG_sd           =   9.6548915696244E-05
(PID.TID 0000.0001) %MON surfExpanfCoriCos_max        =   1.4575362704741E-04
(PID.TID 0000.0001) %MON surfExpanfCoriCos_min        =   3.0322354601388E-05
(PID.TID 0000.0001) %MON surfExpanfCoriCos_mean       =   1.0288600773632E-04
(PID.TID 0000.0001) %MON surfExpanfCoriCos_sd         =   3.6784304327266E-05
(PID.TID 0000.0001) INI_CG2D: CG2D normalisation factor =  6.5682677425711703E-05
(PID.TID 0000.0001) 
(PID.TID 0000.0001)  MDS_READ_FIELD: opening global file: lev_t.bin
(PID.TID 0000.0001) // =======================================================
(PID.TID 0000.0001) // Field Initial Temperature at iteration          1
(PID.TID 0000.0001) // CMIN =         -1.900000000000000E+00
(PID.TID 0000.0001) // CMAX =          2.973338890075684E+01
(PID.TID 0000.0001) // CINT =          1.171606996324327E+00
(PID.TID 0000.0001) // SYMBOLS (CMIN->CMAX): -abcdefghijklmnopqrstuvwxyz+
(PID.TID 0000.0001) //                  0.0: .
(PID.TID 0000.0001) // RANGE I (Lo:Hi:Step):(   1:  90:   1)
(PID.TID 0000.0001) // RANGE J (Lo:Hi:Step):(  40:   1:  -1)
(PID.TID 0000.0001) // RANGE K (Lo:Hi:Step):(   1:   1:   1)
(PID.TID 0000.0001) // =======================================================
(PID.TID 0000.0001) K =   1
(PID.TID 0000.0001)                I=10      I=20      I=30      I=40      I=50      I=60      I=70      I=80      I=90
(PID.TID 0000.0001) |--J--|123456789|123456789|123456789|123456789|123456789|123456789|123456789|123456789|123456789|
(PID.TID 0000.0001)     40 bccdd.baa----abdedd..................................................................bbbbb
(PID.TID 0000.0001)     39 ccdddddccbbbaa...ed.....................................................----........bbbbbb
(PID.TID 0000.0001)     38 fffgfedeedddc...........................................................-----......cbbbcde
(PID.TID 0000.0001)     37 ghh..................................................................bc...bbc...edeed.defg
(PID.TID 0000.0001)     36 hh.........................................ddcb....................dcccbabccdd.eefghhihhih
(PID.TID 0000.0001)     35 hh.................................aaab..dddeddd...ffggg...........ccc....ddeeeffghijjjjih
(PID.TID 0000.0001)     34 ...................................babb.deeeeeee.ffffgghh..................ccdffghijkkkj..
(PID.TID 0000.0001)     33 ....................................accdddeeeeefffffgghhiii.................bcfijkkllllkk.
(PID.TID 0000.0001)     32 ....................................bdddeffgffgghhhhhiiijjj................dccglmnmmmmlll.
(PID.TID 0000.0001)     31 ....................................fghiiiijjjjjjkkkkklllkk..............ikkjjmooooonnmm..
(PID.TID 0000.0001)     30 ...................................mmmnmmmmmmmmmmmmmnnnnnmm............moqrrrqrqqqpppooo..
(PID.TID 0000.0001)     29 .................................pqqqqqpppppppppoppoppppponm...........ssssssrrrrrqqqqpp..
(PID.TID 0000.0001)     28 ...............................prssssrrrsssrrrrrrrrrrrrrqqpoo.........uttssstssrssrrrqqq..
(PID.TID 0000.0001)     27 ..............vv..............stuttuuuuutuuuuuuuuuuttttssrrqqq...stuu.vvvuuuuutttttsss....
(PID.TID 0000.0001)     26 ..............vvv...........uuvvvvvwwwwwwwwvvvvvvvvvuuutttsssttv.uuvxxwwwwwwvvvvuuttsr....
(PID.TID 0000.0001)     25 ..............wwwx...xxx...vvvxxxxxyyxxxxxxxxxwwwwwvvvvvuuuuuvwwx...xxxxxxwwwwwwvvutsr....
(PID.TID 0000.0001)     24 ............wwwwxyy.xxyy...wxx.yyyyyyyyyyyxxxxxxxxwwwwwwwvvwwxxyywww.xxxxxxxxxxwwwvvur....
(PID.TID 0000.0001)     23 ............xxxyyyz.xyyy...xxx..yyyyzzyyyyyyyyxxxxxxxxxwwwwwxxxwwwwwx....vwxxxxwwwwwvu....
(PID.TID 0000.0001)     22 w...........xxyyyzyyyyyz...xx.yyzzzzzzzzzzzzzyyzyyyyyyxxwwxxxxwvvvwwxw......yyyyxxxxxxwxxw
(PID.TID 0000.0001)     21 xxx........xxxxyyzzzzzzz+.....zyzzzzzzz++zzzzyyyyyyyyxxwvvwwwwvvvvvvvu........yyyyyyyyyxxx
(PID.TID 0000.0001)     20 xww.......xyyyyxyyzzzzzz+......z.zzzzz+++zzzzzzyyyyyxxxxwvwxwvuuuuuuut.........yyyyxxxxwww
(PID.TID 0000.0001)     19 vvv.......yyyyxwwxyzyyzzzzz...zzz.....++++++z++z+zzzyyyyxxxxwwvvvvvvvu...........yyxxxwwww
(PID.TID 0000.0001)     18 uut.......zzyyywwxyzyyyyzzyzzzzzz...z+z++++zz+++++++zzzyyyyxxwwwvvvvvtt..........yyxxwvvwv
(PID.TID 0000.0001)     17 uus.......z.yyyyyyxyzzyyyyyyyzz.....yzzzzzzzzzzzzzzzzzzyyyyxxwwvuuvvuut.........yyyxxwttvu
(PID.TID 0000.0001)     16 utr......yy.zyyyyxxxxxxxwxxxxy.......yyyyyyyyyyyyyyyyyyyyyyyxxwvvvuuutts........xyyyxwvuuu
(PID.TID 0000.0001)     15 ttrr....xxx.xxxwxwwwwvwwvvvww.........xwxxxxxxxxxxxxxxxxxyyyxwwwvvuttssrr......wxxxxxwwvuu
(PID.TID 0000.0001)     14 ttsq....xyxwwxwvwwwvutuuuuuuu.........wwvwwwwvwvvwwwvwvvwwwwwwvvvuuutssrr.....vwwwwwwwvvvu
(PID.TID 0000.0001)     13 tttr....wwwvvvtttuuuutttssttt.........vvvuuuuuuutttttuuuuuvwwwuuuttttssrr....uvvvvvvvvvvut
(PID.TID 0000.0001)     12 sssssstttutssssrrrrrstrqqrrssqqrrq....uuttssssrrrrrrrrrrrstttssssrssrrqp.....uuuttssttssss
(PID.TID 0000.0001)     11 poprsssrqqqqqrqppooopqpoppppppppppp..sssrrr.rqpppqqqqppppqqqoppqqqqrqqpp....prsrqqqqqppppq
(PID.TID 0000.0001)     10 lllmoooonmnnmnnnnmmmmmmlmmlllmnnnnon.qqqppp.ppppppooooooooonmnnnonnooooo..nmoponnmnnnnnmll
(PID.TID 0000.0001)      9 ihhiiiihhhhhhiiihiiiiihhhiiiijjkkmnllnnnnn.mmmmnnnnmmmmnnmmlklllllklllll.mllmmllkjiijjihhi
(PID.TID 0000.0001)      8 eeeeeeeedefgggffeeffggffffggghiiiijjijklklkkkkkkkklllkkkkjjiiijkjjjjjjkj.kkjjiihggffffedde
(PID.TID 0000.0001)      7 cccccddeedddefeddddddddddefeefffffgggghiiiiiijjjihhgggghhhhhghhhhhhhiiiihiihhgfeddddddcccc
(PID.TID 0000.0001)      6 abbcccddcccccdddddccdddddddccddddddeeeeffggggghhgeddddddeeeeeeefggggghggggffeedccbbbbbbbba
(PID.TID 0000.0001)      5 bbbcccccccccccccccccccccbbccccdddddddcccddeeddeedcbbbbbbccccccdddeeeeeddddddccbbbbaaaaaaab
(PID.TID 0000.0001)      4 bbbbbbbaaabbbbbbbbbbbbaabbabbbbcbbbbbbbbbbbbbbbbbbbabbaaabbbbbbbbbbbbbbbbb..a--aaabbbaaabb
(PID.TID 0000.0001)      3 bbbbaaa-a-............................bbaaaaaaaaaaaaaaaaaaaaaaaaaaaaaaaab..aaaaaaaabbbaaaa
(PID.TID 0000.0001)      2 ..........................................baaaaaaaaaaaa-------aa..aaaa.....aaaaaaaaaaaa...
(PID.TID 0000.0001)      1 ..........................................................................................
(PID.TID 0000.0001) // =======================================================
(PID.TID 0000.0001) // END OF FIELD                                          =
(PID.TID 0000.0001) // =======================================================
(PID.TID 0000.0001) 
(PID.TID 0000.0001)  MDS_READ_FIELD: opening global file: lev_s.bin
(PID.TID 0000.0001) // =======================================================
(PID.TID 0000.0001) // Field Initial Salinity at iteration          1
(PID.TID 0000.0001) // CMIN =          2.975276947021484E+01
(PID.TID 0000.0001) // CMAX =          3.747562789916992E+01
(PID.TID 0000.0001) // CINT =          2.860317936650029E-01
(PID.TID 0000.0001) // SYMBOLS (CMIN->CMAX): -abcdefghijklmnopqrstuvwxyz+
(PID.TID 0000.0001) //                  0.0: .
(PID.TID 0000.0001) // RANGE I (Lo:Hi:Step):(   1:  90:   1)
(PID.TID 0000.0001) // RANGE J (Lo:Hi:Step):(  40:   1:  -1)
(PID.TID 0000.0001) // RANGE K (Lo:Hi:Step):(   1:   1:   1)
(PID.TID 0000.0001) // =======================================================
(PID.TID 0000.0001) K =   1
(PID.TID 0000.0001)                I=10      I=20      I=30      I=40      I=50      I=60      I=70      I=80      I=90
(PID.TID 0000.0001) |--J--|123456789|123456789|123456789|123456789|123456789|123456789|123456789|123456789|123456789|
(PID.TID 0000.0001)     40 qrrrr.oonnooopqtutt..................................................................mnnop
(PID.TID 0000.0001)     39 rssrrrrrrrqqpn...ut.....................................................mmmm........opqqqr
(PID.TID 0000.0001)     38 ssrrqqqqrrqpo...........................................................lkkll......onoqrrs
(PID.TID 0000.0001)     37 ssr..................................................................hg...lln...qppqr.rrrs
(PID.TID 0000.0001)     36 rr.........................................lkji....................feeegikmoop.pqrssssssss
(PID.TID 0000.0001)     35 rr.................................kkkk..lllllki...jijjj...........aa-....opqrrrrrrrssttss
(PID.TID 0000.0001)     34 ...................................jlll.kklllllk.ijkkkjih..................hlpqrqrrsstts..
(PID.TID 0000.0001)     33 ....................................iklkkkkkkkkkjkkjjjjjjii.................jmprrsstttttt.
(PID.TID 0000.0001)     32 ....................................iklllkllllllllkkkkkkkji................gilpstuuttuuut.
(PID.TID 0000.0001)     31 ....................................lmnonnnnoooonnmmmmllkjj..............loopqtvvvuuuuuu..
(PID.TID 0000.0001)     30 ...................................pppppppqqqqpppoooonnmlkk............ptvxwwvvwvvvvvvvu..
(PID.TID 0000.0001)     29 .................................pqqrqqqqqqrrrqqppqqqpponmll...........vxxxxxxwwwwwxwwxw..
(PID.TID 0000.0001)     28 ...............................prrrrrqqrrrrrsrrsrssssssrqonmm.........wxxxxxxxyyyyyyyyxx..
(PID.TID 0000.0001)     27 ..............xx..............prrrrrrrrrssssssstttssssssrqpoop...uwww.wwxxxyyy++zzzzyy....
(PID.TID 0000.0001)     26 ..............wxx...........ppqrrrrrrsssrrstsstttssrrrrrrrqppqqp.wwwvvwwwwwxyy+++zzyxw....
(PID.TID 0000.0001)     25 ..............wxxv...kkk...ooopqrrrrrssrrrrrrrssssqqpppppppppppoo...vvutuuvvwxyyyxxvvu....
(PID.TID 0000.0001)     24 ............uvvwwur.lmlk...nmm.pqqqqrrrrrqqqqrrqqrpppppooooonmmmnooo.uuuuuuttuvvvuvuut....
(PID.TID 0000.0001)     23 ............vvuvtqp.lmml...mln..ppppqpqppppppqpppppppppqppponnnnnoopm....xvuuuvvvvuuut....
(PID.TID 0000.0001)     22 r...........vuttsqqpnppn...mm.oppqqrrqqqqqqppppqqrrrqqqrrppppoopooomjj......uuvvvvvuttssrr
(PID.TID 0000.0001)     21 qmm........ttsssssssrsqon.....opqqqqqqqrrrrqqqssssssrrrrrrrrpqqqppomll........tvvvvuttssrr
(PID.TID 0000.0001)     20 sqq.......sttssrrsrrrrpol......p.qrqpqrrrrrrrstttttsssrrsssrqrrrrqqqpo.........wwwvvvuuutt
(PID.TID 0000.0001)     19 tsr.......ssssrrrrpppppnmmm...oqq.....qrqqsrrstttuuuttssttssrrssrrrrqq...........wwwvuvvvv
(PID.TID 0000.0001)     18 wut.......ssrrrrrqppppppppoooorrr...poqqqprrrttttuuutuuuuuutttttttutsss..........yyxwwxwxx
(PID.TID 0000.0001)     17 wwu.......s.rrrrrrqppppqqqqqqqr.....rrsrqrsssuusrtuuuvvvwwvvvuuuuutttss.........xyzyyyyxxx
(PID.TID 0000.0001)     16 vvt......ss.qrrssrqrqpqrrrrrrr.......ssrrstsstusrsuuuvwwwwxxwwvvvuttttsr........yz+zzzxwww
(PID.TID 0000.0001)     15 utss....stt.rrssstttsrrsrstsr.........ssstttssttsuuttuvvvvwxwwwwwuttsssrr......xyyyyxyyxwv
(PID.TID 0000.0001)     14 utts....sstrrssstuuuuuuuuuutt.........stttuutttttttuttttttuvvvvvvutsrqrrr.....vxxwwwwxwvwv
(PID.TID 0000.0001)     13 uuut....ttttttttuuuuuvtuuuuuu.........ttttuutttttttuutsssstttttstsqrqqppp....uwwwvuvvvutvv
(PID.TID 0000.0001)     12 ttttttttttttttttttttttssuuuuutuuut....tttttttttttsssssrrrrrrrqqqqqppppoo.....rvvuuttttttuu
(PID.TID 0000.0001)     11 rqsttttttttuuttttsssssrrstttttttsss..ttttts.tsssrrrrqqqqqppppoonnooooooo....oruttttsssrqrs
(PID.TID 0000.0001)     10 pppqrssrqqrqpqrssrrqqqqqqrrrrrrrrrrs.sssssr.rssrrqqpppppppooooonnnoooonn..moqrrrqqqqqqqqqq
(PID.TID 0000.0001)      9 oonooooooooonnnooooooooooppppppqqqqqrrrqrq.pppqqqqqppppppppppoooooooooll.lmoqqqqppooooopoo
(PID.TID 0000.0001)      8 nnnoonooooooonnnnnnnoooonoonoooppopqqqqqqqppopppqqqpppppppppppppppooopon.lnopppoooonnnnooo
(PID.TID 0000.0001)      7 ooooooooooopponnnooooooonnnnnonnooooooooopppppppoooooooooopppppppppoopqnnmnoooonnnonnnnnno
(PID.TID 0000.0001)      6 oooonnoonnnnooooooooooooonnnnnnnnnnnnnnnnoooopppooooooooooooooppppppppppoooooooonnnnnmnnnn
(PID.TID 0000.0001)      5 oooonnnnnnnnnnnnnnnnnoooooonnnnnnonnnnnnnnnoooooooooooonnnnnnooooooopoooonoooonnnnnnnooooo
(PID.TID 0000.0001)      4 oooonnnooonnnnnnnnnnnnnnoooooonnnooooonnnooooooooppponnnnmmmnnnnmnnoonnnnn..nnnooooooooooo
(PID.TID 0000.0001)      3 ooonnnnnnn............................nnoooooonnooooonnnnnnnoonnnnnnnnmmm..ooopooooooooooo
(PID.TID 0000.0001)      2 ..........................................pppooooonnnnnnoooppppo..nnnn.....qqqpppoooooo...
(PID.TID 0000.0001)      1 ..........................................................................................
(PID.TID 0000.0001) // =======================================================
(PID.TID 0000.0001) // END OF FIELD                                          =
(PID.TID 0000.0001) // =======================================================
(PID.TID 0000.0001) 
(PID.TID 0000.0001) Start initial hydrostatic pressure computation
(PID.TID 0000.0001) Pressure is predetermined for buoyancyRelation OCEANIC
(PID.TID 0000.0001) 
(PID.TID 0000.0001)  MDS_READ_FIELD: opening global file: trenberth_taux.bin
(PID.TID 0000.0001)  MDS_READ_FIELD: opening global file: trenberth_tauy.bin
(PID.TID 0000.0001)  MDS_READ_FIELD: opening global file: ncep_qnet.bin
(PID.TID 0000.0001)  MDS_READ_FIELD: opening global file: lev_sst.bin
(PID.TID 0000.0001)  MDS_READ_FIELD: opening global file: lev_sss.bin
(PID.TID 0000.0001) // =======================================================
(PID.TID 0000.0001) // Model current state
(PID.TID 0000.0001) // =======================================================
(PID.TID 0000.0001) 
S/R EXTERNAL_FIELDS_LOAD: Reading new data:   12    1         0  0.000000000000E+00
(PID.TID 0000.0001)  MDS_READ_FIELD: opening global file: trenberth_taux.bin
(PID.TID 0000.0001)  MDS_READ_FIELD: opening global file: trenberth_taux.bin
(PID.TID 0000.0001)  MDS_READ_FIELD: opening global file: trenberth_tauy.bin
(PID.TID 0000.0001)  MDS_READ_FIELD: opening global file: trenberth_tauy.bin
(PID.TID 0000.0001)  MDS_READ_FIELD: opening global file: ncep_qnet.bin
(PID.TID 0000.0001)  MDS_READ_FIELD: opening global file: ncep_qnet.bin
(PID.TID 0000.0001)  MDS_READ_FIELD: opening global file: lev_sst.bin
(PID.TID 0000.0001)  MDS_READ_FIELD: opening global file: lev_sst.bin
(PID.TID 0000.0001)  MDS_READ_FIELD: opening global file: lev_sss.bin
(PID.TID 0000.0001)  MDS_READ_FIELD: opening global file: lev_sss.bin
time,SST,SSS,fu,fv,Q,E-P,i0,i1,a,b =   0.0000E+00  5.3151E-02  3.4364E+01 -4.0500E-02 -6.3753E-02  2.6510E+02  0.0000E+00    12     1  5.0000E-01  5.0000E-01
time,fu0,fu1,fu =   0.0000E+00 -4.5368E-02 -3.5633E-02 -4.0500E-02  5.000000000000000E-01  5.000000000000000E-01
(PID.TID 0000.0001)  MDS_READ_FIELD: opening file: xx_hfluxm.0000000000.001.001.data
 cg2d: Sum(rhs),rhsMax =   1.47867829092263E-14  2.54952604282385E+00
time,SST,SSS,fu,fv,Q,E-P,i0,i1,a,b =   8.6400E+04  1.1350E-01  3.4387E+01 -4.0176E-02 -6.3320E-02  2.6514E+02  0.0000E+00    12     1  5.3333E-01  4.6667E-01
time,fu0,fu1,fu =   8.6400E+04 -4.5368E-02 -3.5633E-02 -4.0176E-02  5.333333333333333E-01  4.666666666666667E-01
 cg2d: Sum(rhs),rhsMax =   9.35362898246694E-15  2.62443215722193E+00
time,SST,SSS,fu,fv,Q,E-P,i0,i1,a,b =   1.7280E+05  1.7385E-01  3.4410E+01 -3.9851E-02 -6.2886E-02  2.6519E+02  0.0000E+00    12     1  5.6667E-01  4.3333E-01
time,fu0,fu1,fu =   1.7280E+05 -4.5368E-02 -3.5633E-02 -3.9851E-02  5.666666666666667E-01  4.333333333333333E-01
 cg2d: Sum(rhs),rhsMax =   1.60843560692570E-14  2.39923446838036E+00
time,SST,SSS,fu,fv,Q,E-P,i0,i1,a,b =   2.5920E+05  2.3421E-01  3.4434E+01 -3.9527E-02 -6.2453E-02  2.6523E+02  0.0000E+00    12     1  6.0000E-01  4.0000E-01
time,fu0,fu1,fu =   2.5920E+05 -4.5368E-02 -3.5633E-02 -3.9527E-02  6.000000000000000E-01  4.000000000000000E-01
 cg2d: Sum(rhs),rhsMax =  -1.19071419391048E-14  2.21574359140916E+00
time,SST,SSS,fu,fv,Q,E-P,i0,i1,a,b =   3.4560E+05  2.9456E-01  3.4457E+01 -3.9202E-02 -6.2020E-02  2.6528E+02  0.0000E+00    12     1  6.3333E-01  3.6667E-01
time,fu0,fu1,fu =   3.4560E+05 -4.5368E-02 -3.5633E-02 -3.9202E-02  6.333333333333333E-01  3.666666666666667E-01
 cg2d: Sum(rhs),rhsMax =   1.13520304267922E-14  2.00995911928072E+00
time,SST,SSS,fu,fv,Q,E-P,i0,i1,a,b =   4.3200E+05  3.5491E-01  3.4481E+01 -3.8878E-02 -6.1587E-02  2.6532E+02  0.0000E+00    12     1  6.6667E-01  3.3333E-01
time,fu0,fu1,fu =   4.3200E+05 -4.5368E-02 -3.5633E-02 -3.8878E-02  6.666666666666666E-01  3.333333333333334E-01
 cg2d: Sum(rhs),rhsMax =   1.66811009449930E-14  1.78612610487827E+00
time,SST,SSS,fu,fv,Q,E-P,i0,i1,a,b =   5.1840E+05  4.1526E-01  3.4504E+01 -3.8553E-02 -6.1154E-02  2.6537E+02  0.0000E+00    12     1  7.0000E-01  3.0000E-01
time,fu0,fu1,fu =   5.1840E+05 -4.5368E-02 -3.5633E-02 -3.8553E-02  7.000000000000000E-01  3.000000000000000E-01
 cg2d: Sum(rhs),rhsMax =  -2.01089145335231E-14  1.55419822196070E+00
time,SST,SSS,fu,fv,Q,E-P,i0,i1,a,b =   6.0480E+05  4.7561E-01  3.4527E+01 -3.8229E-02 -6.0721E-02  2.6541E+02  0.0000E+00    12     1  7.3333E-01  2.6667E-01
time,fu0,fu1,fu =   6.0480E+05 -4.5368E-02 -3.5633E-02 -3.8229E-02  7.333333333333333E-01  2.666666666666667E-01
 cg2d: Sum(rhs),rhsMax =  -2.38281616660174E-14  1.32823755872490E+00
time,SST,SSS,fu,fv,Q,E-P,i0,i1,a,b =   6.9120E+05  5.3596E-01  3.4551E+01 -3.7904E-02 -6.0288E-02  2.6546E+02  0.0000E+00    12     1  7.6667E-01  2.3333E-01
time,fu0,fu1,fu =   6.9120E+05 -4.5368E-02 -3.5633E-02 -3.7904E-02  7.666666666666667E-01  2.333333333333333E-01
 cg2d: Sum(rhs),rhsMax =   1.81660242404291E-14  1.15613808757576E+00
time,SST,SSS,fu,fv,Q,E-P,i0,i1,a,b =   7.7760E+05  5.9632E-01  3.4574E+01 -3.7580E-02 -5.9855E-02  2.6550E+02  0.0000E+00    12     1  8.0000E-01  2.0000E-01
time,fu0,fu1,fu =   7.7760E+05 -4.5368E-02 -3.5633E-02 -3.7580E-02  8.000000000000000E-01  2.000000000000000E-01
 cg2d: Sum(rhs),rhsMax =  -3.70536934468646E-14  1.08384893697016E+00
(PID.TID 0000.0001) %CHECKPOINT        10 ckptB
(PID.TID 0000.0001)  MDS_READ_FIELD: opening global file: lev_t_an.bin
 --> objf_test(bi,bj)   =  0.000000000000000E+00
 --> objf_tracer(bi,bj) =  0.000000000000000E+00
 --> objf_atl(bi,bj)    =  0.000000000000000E+00
 --> objf_temp_tut(bi,bj)   =  0.620487598157478E+01
 --> objf_hflux_tut(bi,bj) =  0.341013848345626E-08
  local fc =  0.620487598839505E+01
 global fc =  0.620487598839505E+01
(PID.TID 0000.0001)  MDS_READ_FIELD: opening file: xx_hfluxm.0000000000.001.001.data
grad-res -------------------------------
 grad-res     0    3   78   27    1    1    1    1   0.620487645063E+01 0.620487692634E+01 0.620487598840E+01
 grad-res     0    3    3 1874 2315    1    1    1   0.468971439030E-05 0.468971612655E-05 -.370225182511E-06
(PID.TID 0000.0001)   ADM  precision_derivative_cost =    6.20487645062633E+00
(PID.TID 0000.0001)   ADM  precision_derivative_grad =    4.68971439029875E-06
 ph-grd  ierr ---------------------------
 ph-grd  ierr =  0, icomp =  1874, ichknum =  3
 ph-grd -->hit<--  79 27 1 1
(PID.TID 0000.0001)  MDS_READ_FIELD: opening file: adxx_hfluxm.0000000000.001.001.data
(PID.TID 0000.0001)  MDS_READ_FIELD: opening file: xx_hfluxm.0000000000.001.001.data
(PID.TID 0000.0001)  MDS_READ_FIELD: opening global file: bathymetry.bin
(PID.TID 0000.0001) // =======================================================
(PID.TID 0000.0001) // Field Model R_low (ini_masks_etc) at iteration          1
(PID.TID 0000.0001) // CMIN =         -5.200000000000000E+03
(PID.TID 0000.0001) // CMAX =         -1.200000000000000E+02
(PID.TID 0000.0001) // CINT =          1.881481481481482E+02
(PID.TID 0000.0001) // SYMBOLS (CMIN->CMAX): -abcdefghijklmnopqrstuvwxyz+
(PID.TID 0000.0001) //                  0.0: .
(PID.TID 0000.0001) // RANGE I (Lo:Hi:Step):(  -1:  92:   1)
(PID.TID 0000.0001) // RANGE J (Lo:Hi:Step):(  42:  -1:  -1)
(PID.TID 0000.0001) // RANGE K (Lo:Hi:Step):(   1:   1:   1)
(PID.TID 0000.0001) // =======================================================
(PID.TID 0000.0001) K =   1
(PID.TID 0000.0001) //                I=8       I=18      I=28      I=38      I=48      I=58      I=68      I=78      I=88
(PID.TID 0000.0001) // |--J--|101234567|901234567|901234567|901234567|901234567|901234567|901234567|901234567|901234567|9012
(PID.TID 0000.0001) //     42 ............................................zyxxmgfeeefefgimnpwwwy..+zyy.....yyyyoiiihhz+.....
(PID.TID 0000.0001) //     41 ..............................................................................................
(PID.TID 0000.0001) //     40 qlloqz+.++++zzz++++++..................................................................+++qllo
(PID.TID 0000.0001) //     39 slloorzzzzzzzzz+...++.....................................................yxxz........+zvusllo
(PID.TID 0000.0001) //     38 mqpporzzzzzz+++...........................................................zxxy+......zyyvsmqpp
(PID.TID 0000.0001) //     37 mmmuz..................................................................++...zy+...yttyy.+smmmu
(PID.TID 0000.0001) //     36 utt+.........................................mm++....................+++++++znmm.yoowssvuyutt+
(PID.TID 0000.0001) //     35 ++++.................................+zzz..rrmmkk+...+gghn...........+++....+nmiijlsoopuww++++
(PID.TID 0000.0001) //     34 .....................................+vvy.ggqyxv+y.ccdffhim..................+nihhikkihhm+....
(PID.TID 0000.0001) //     33 +.....................................uuz---h------aaabdefin+.................zqvddflifffw+...
(PID.TID 0000.0001) //     32 +.....................................+t----h---------acdfgnn................+++gdffkofffm+...
(PID.TID 0000.0001) //     31 ......................................-----ad--------abddegil..............qbaafccdhqqgddm....
(PID.TID 0000.0001) //     30 .....................................f----b--b------------abd............zfbb--fbcdosjfddi....
(PID.TID 0000.0001) //     29 ...................................tu----e---fjg----------abdf...........eaac--abfmijaadgi....
(PID.TID 0000.0001) //     28 .................................+xfl-------------------bdedefi.........qbaa---aemfbbaaejz....
(PID.TID 0000.0001) //     27 ................xx..............+wfgfpf--------eallc---bbbccefgi...+++x.qb-----akfa---ah......
(PID.TID 0000.0001) //     26 ................xnn...........+vd---dna------a--aicfna---aabdfghku.++xssuy-----bgca---ci......
(PID.TID 0000.0001) //     25 ................iiik...oo+...+ivd---doaa-bc--ilglf--aa---aabcghhkll...ssum+xaaacjbaabdjk......
(PID.TID 0000.0001) //     24 ..............xnheeft.kkk+...uii.aagdm----aa-----a-------bbbcdefjljjju.zummwwbbchba--abi......
(PID.TID 0000.0001) //     23 ..............xgheefp.iikw...uuw..fihi----fed-----eaaa--bbbbcdfflkjiiiq....zykccefa--abd......
(PID.TID 0000.0001) //     22 uss...........bbelffslffkk...zz.wqkeeqoheccdfa-----egabaabcdddegghliiiqq......xeeehheehccquss.
(PID.TID 0000.0001) //     21 bbeir........nbbcdjhqdddiiz.....wqfeelgghmedea-----bibbcddddddefghklnqoo........ieeflhgcccbbei
(PID.TID 0000.0001) //     20 bbder.......ldcccdgkccccidd......z.vkkktqqhegg----aaacddddddddefghkiiijl.........nhfa--gfcbbde
(PID.TID 0000.0001) //     19 cdaaf.......kddosggpaaaibbccx...+z+.....r+nlec---agaaabcddccddefikfgffff...........d---cjhcdaa
(PID.TID 0000.0001) //     18 d---d.......kglggvliaaaibbcaaeaiv++...qqzolhecccfdgkaabcdfccdeeikgfgffdd+..........d---djhd---
(PID.TID 0000.0001) //     17 c---c.......l.feewlfaaaoaa----aiv.....qqnllslmlofcdbaacceffffhhligfigeddj.........hd---ckhc---
(PID.TID 0000.0001) //     16 ba--c......tn.ddgnlfdaaqa-----lv.......vnllvllnwv--accivomfffhilhgfffeddjf........re--aeigba--
(PID.TID 0000.0001) //     15 b--dpz....+ll.ccdfhmdddlc----av.........otsxoomv---abccddfihgijkhgfffeejfff......+fd---ckfb--d
(PID.TID 0000.0001) //     14 c--mcl....weeqbaafilkfend--eagy.........hhstofft----aacdheefijkmjhhjijiffff.....zlfdaaadlfc--m
(PID.TID 0000.0001) //     13 cclbbg....nccobaaiddgkffqrqeaal.........eeutqfft------aaceeffhijlkjhhigfffq....+jgfodccflhcclb
(PID.TID 0000.0001) //     12 hgaaacw+iiicclemhdddfliigfdcaabfaaaz....ccsurqpc--------abcifffikiiihhggff.....kbbbdfffglhhgaa
(PID.TID 0000.0001) //     11 gcaaacbbifccennhbbdefnihgfdccaaaa----..dcccnt.ncab-------aabcdfilhggjiggff....l---abcefjlkgcaa
(PID.TID 0000.0001) //     10 fcaaccbdaacfrllfbbdegkmmljhfdddba----d.dcccfx.nyrebaba----abcdgilhfeegijgi..+w--aa-abcfilkfcaa
(PID.TID 0000.0001) //      9 ffcdcccaaaoqsolfdeehikihhlllgfedcccccdmdcccf.vyfaaaaaaaa--abdehmjhfeeefglv.++w-----abcdfklffcd
(PID.TID 0000.0001) //      8 iffjklcaafddffeeccvznkfffhhhlkjifgjkkfeeddfsyvcaaaaaaccdcccdfgjligedbbceg+.++xffn--cfddefliffj
(PID.TID 0000.0001) //      7 mqnnbbkkf--bmbaabbgtykfddeffeeddccdfhlffeelfbaaaaaacddeghgjgjlligeddaaabedfiiiiiisvkfkecchmqnn
(PID.TID 0000.0001) //      6 ca-------------aabcelttdddedddddccccdfkkiiffbaaaabcdgimmkmefecaaabbbaaabbdfiiiiispmmregifcca--
(PID.TID 0000.0001) //      5 -------a-------aaccehhhiddeddddddcccdfiikomodddefffmlmigedccaaaaaaaababbbdfiijsqgeccccbaa-----
(PID.TID 0000.0001) //      4 -ahebaabbbbbeihffgijiiiijpywnnpokkomkiiijmmmolkommmgffeeedccaaaaaabbcccefhmz..yjgeccccbaa--ahe
(PID.TID 0000.0001) //      3 ffhhrpjiiwyy............................yxotmjjjjgfeeeeeeddeffffheddeghjkyy..yqjgeddccdbbgffhh
(PID.TID 0000.0001) //      2 ............................................zyxxmgfeeefefgimnpwwwy..+zyy.....yyyyoiiihhz+.....
(PID.TID 0000.0001) //      1 ..............................................................................................
(PID.TID 0000.0001) //      0 qlloqz+.++++zzz++++++..................................................................+++qllo
(PID.TID 0000.0001) //     -1 slloorzzzzzzzzz+...++.....................................................yxxz........+zvusllo
(PID.TID 0000.0001) // =======================================================
(PID.TID 0000.0001) // END OF FIELD                                          =
(PID.TID 0000.0001) // =======================================================
(PID.TID 0000.0001) 
(PID.TID 0000.0001) // =======================================================
(PID.TID 0000.0001) // Field Model Ro_surf (ini_masks_etc) at iteration          1
(PID.TID 0000.0001) // CMIN =          1.000000000000000E+32
(PID.TID 0000.0001) // CMAX =         -1.000000000000000E+32
(PID.TID 0000.0001) // CINT =          0.000000000000000E+00
(PID.TID 0000.0001) // SYMBOLS (CMIN->CMAX): -abcdefghijklmnopqrstuvwxyz+
(PID.TID 0000.0001) //                  0.0: .
(PID.TID 0000.0001) // RANGE I (Lo:Hi:Step):(  -1:  92:   1)
(PID.TID 0000.0001) // RANGE J (Lo:Hi:Step):(  42:  -1:  -1)
(PID.TID 0000.0001) // RANGE K (Lo:Hi:Step):(   1:   1:   1)
(PID.TID 0000.0001) // =======================================================
(PID.TID 0000.0001) // =======================================================
(PID.TID 0000.0001) // END OF FIELD                                          =
(PID.TID 0000.0001) // =======================================================
(PID.TID 0000.0001) 
(PID.TID 0000.0001) // =======================================================
(PID.TID 0000.0001) // Field hFacC at iteration          1
(PID.TID 0000.0001) // CMIN =          1.000000000000000E+00
(PID.TID 0000.0001) // CMAX =          1.000000000000000E+00
(PID.TID 0000.0001) // CINT =          0.000000000000000E+00
(PID.TID 0000.0001) // SYMBOLS (CMIN->CMAX): -abcdefghijklmnopqrstuvwxyz+
(PID.TID 0000.0001) //                  0.0: .
(PID.TID 0000.0001) // RANGE I (Lo:Hi:Step):(  -1:  92:   1)
(PID.TID 0000.0001) // RANGE J (Lo:Hi:Step):(  42:  -1:  -1)
(PID.TID 0000.0001) // RANGE K (Lo:Hi:Step):(   1:   1:   1)
(PID.TID 0000.0001) // =======================================================
(PID.TID 0000.0001) // =======================================================
(PID.TID 0000.0001) // END OF FIELD                                          =
(PID.TID 0000.0001) // =======================================================
(PID.TID 0000.0001) 
(PID.TID 0000.0001) // =======================================================
(PID.TID 0000.0001) // Field hFacW at iteration          1
(PID.TID 0000.0001) // CMIN =          1.000000000000000E+00
(PID.TID 0000.0001) // CMAX =          1.000000000000000E+00
(PID.TID 0000.0001) // CINT =          0.000000000000000E+00
(PID.TID 0000.0001) // SYMBOLS (CMIN->CMAX): -abcdefghijklmnopqrstuvwxyz+
(PID.TID 0000.0001) //                  0.0: .
(PID.TID 0000.0001) // RANGE I (Lo:Hi:Step):(  -1:  92:   1)
(PID.TID 0000.0001) // RANGE J (Lo:Hi:Step):(  42:  -1:  -1)
(PID.TID 0000.0001) // RANGE K (Lo:Hi:Step):(   1:   1:   1)
(PID.TID 0000.0001) // =======================================================
(PID.TID 0000.0001) // =======================================================
(PID.TID 0000.0001) // END OF FIELD                                          =
(PID.TID 0000.0001) // =======================================================
(PID.TID 0000.0001) 
(PID.TID 0000.0001) // =======================================================
(PID.TID 0000.0001) // Field hFacS at iteration          1
(PID.TID 0000.0001) // CMIN =          1.000000000000000E+00
(PID.TID 0000.0001) // CMAX =          1.000000000000000E+00
(PID.TID 0000.0001) // CINT =          0.000000000000000E+00
(PID.TID 0000.0001) // SYMBOLS (CMIN->CMAX): -abcdefghijklmnopqrstuvwxyz+
(PID.TID 0000.0001) //                  0.0: .
(PID.TID 0000.0001) // RANGE I (Lo:Hi:Step):(  -1:  92:   1)
(PID.TID 0000.0001) // RANGE J (Lo:Hi:Step):(  42:  -1:  -1)
(PID.TID 0000.0001) // RANGE K (Lo:Hi:Step):(   1:   1:   1)
(PID.TID 0000.0001) // =======================================================
(PID.TID 0000.0001) // =======================================================
(PID.TID 0000.0001) // END OF FIELD                                          =
(PID.TID 0000.0001) // =======================================================
(PID.TID 0000.0001) 
(PID.TID 0000.0001) %MON surfExpanfCori_max           =   1.4265546244797E-04
(PID.TID 0000.0001) %MON surfExpanfCori_min           =  -1.4265546244797E-04
(PID.TID 0000.0001) %MON surfExpanfCori_mean          =  -1.2347858075529E-21
(PID.TID 0000.0001) %MON surfExpanfCori_sd            =   9.6599226301547E-05
(PID.TID 0000.0001) %MON surfExpanfCoriG_max          =   1.4151032568025E-04
(PID.TID 0000.0001) %MON surfExpanfCoriG_min          =  -1.4362679550910E-04
(PID.TID 0000.0001) %MON surfExpanfCoriG_mean         =  -3.5906698877274E-06
(PID.TID 0000.0001) %MON surfExpanfCoriG_sd           =   9.6548915696244E-05
(PID.TID 0000.0001) %MON surfExpanfCoriCos_max        =   1.4575362704741E-04
(PID.TID 0000.0001) %MON surfExpanfCoriCos_min        =   3.0322354601388E-05
(PID.TID 0000.0001) %MON surfExpanfCoriCos_mean       =   1.0288600773632E-04
(PID.TID 0000.0001) %MON surfExpanfCoriCos_sd         =   3.6784304327266E-05
(PID.TID 0000.0001) INI_CG2D: CG2D normalisation factor =  6.5682677425711703E-05
(PID.TID 0000.0001) 
(PID.TID 0000.0001)  MDS_READ_FIELD: opening global file: lev_t.bin
(PID.TID 0000.0001) // =======================================================
(PID.TID 0000.0001) // Field Initial Temperature at iteration          1
(PID.TID 0000.0001) // CMIN =         -1.900000000000000E+00
(PID.TID 0000.0001) // CMAX =          2.973338890075684E+01
(PID.TID 0000.0001) // CINT =          1.171606996324327E+00
(PID.TID 0000.0001) // SYMBOLS (CMIN->CMAX): -abcdefghijklmnopqrstuvwxyz+
(PID.TID 0000.0001) //                  0.0: .
(PID.TID 0000.0001) // RANGE I (Lo:Hi:Step):(   1:  90:   1)
(PID.TID 0000.0001) // RANGE J (Lo:Hi:Step):(  40:   1:  -1)
(PID.TID 0000.0001) // RANGE K (Lo:Hi:Step):(   1:   1:   1)
(PID.TID 0000.0001) // =======================================================
(PID.TID 0000.0001) K =   1
(PID.TID 0000.0001)                I=10      I=20      I=30      I=40      I=50      I=60      I=70      I=80      I=90
(PID.TID 0000.0001) |--J--|123456789|123456789|123456789|123456789|123456789|123456789|123456789|123456789|123456789|
(PID.TID 0000.0001)     40 bccdd.baa----abdedd..................................................................bbbbb
(PID.TID 0000.0001)     39 ccdddddccbbbaa...ed.....................................................----........bbbbbb
(PID.TID 0000.0001)     38 fffgfedeedddc...........................................................-----......cbbbcde
(PID.TID 0000.0001)     37 ghh..................................................................bc...bbc...edeed.defg
(PID.TID 0000.0001)     36 hh.........................................ddcb....................dcccbabccdd.eefghhihhih
(PID.TID 0000.0001)     35 hh.................................aaab..dddeddd...ffggg...........ccc....ddeeeffghijjjjih
(PID.TID 0000.0001)     34 ...................................babb.deeeeeee.ffffgghh..................ccdffghijkkkj..
(PID.TID 0000.0001)     33 ....................................accdddeeeeefffffgghhiii.................bcfijkkllllkk.
(PID.TID 0000.0001)     32 ....................................bdddeffgffgghhhhhiiijjj................dccglmnmmmmlll.
(PID.TID 0000.0001)     31 ....................................fghiiiijjjjjjkkkkklllkk..............ikkjjmooooonnmm..
(PID.TID 0000.0001)     30 ...................................mmmnmmmmmmmmmmmmmnnnnnmm............moqrrrqrqqqpppooo..
(PID.TID 0000.0001)     29 .................................pqqqqqpppppppppoppoppppponm...........ssssssrrrrrqqqqpp..
(PID.TID 0000.0001)     28 ...............................prssssrrrsssrrrrrrrrrrrrrqqpoo.........uttssstssrssrrrqqq..
(PID.TID 0000.0001)     27 ..............vv..............stuttuuuuutuuuuuuuuuuttttssrrqqq...stuu.vvvuuuuutttttsss....
(PID.TID 0000.0001)     26 ..............vvv...........uuvvvvvwwwwwwwwvvvvvvvvvuuutttsssttv.uuvxxwwwwwwvvvvuuttsr....
(PID.TID 0000.0001)     25 ..............wwwx...xxx...vvvxxxxxyyxxxxxxxxxwwwwwvvvvvuuuuuvwwx...xxxxxxwwwwwwvvutsr....
(PID.TID 0000.0001)     24 ............wwwwxyy.xxyy...wxx.yyyyyyyyyyyxxxxxxxxwwwwwwwvvwwxxyywww.xxxxxxxxxxwwwvvur....
(PID.TID 0000.0001)     23 ............xxxyyyz.xyyy...xxx..yyyyzzyyyyyyyyxxxxxxxxxwwwwwxxxwwwwwx....vwxxxxwwwwwvu....
(PID.TID 0000.0001)     22 w...........xxyyyzyyyyyz...xx.yyzzzzzzzzzzzzzyyzyyyyyyxxwwxxxxwvvvwwxw......yyyyxxxxxxwxxw
(PID.TID 0000.0001)     21 xxx........xxxxyyzzzzzzz+.....zyzzzzzzz++zzzzyyyyyyyyxxwvvwwwwvvvvvvvu........yyyyyyyyyxxx
(PID.TID 0000.0001)     20 xww.......xyyyyxyyzzzzzz+......z.zzzzz+++zzzzzzyyyyyxxxxwvwxwvuuuuuuut.........yyyyxxxxwww
(PID.TID 0000.0001)     19 vvv.......yyyyxwwxyzyyzzzzz...zzz.....++++++z++z+zzzyyyyxxxxwwvvvvvvvu...........yyxxxwwww
(PID.TID 0000.0001)     18 uut.......zzyyywwxyzyyyyzzyzzzzzz...z+z++++zz+++++++zzzyyyyxxwwwvvvvvtt..........yyxxwvvwv
(PID.TID 0000.0001)     17 uus.......z.yyyyyyxyzzyyyyyyyzz.....yzzzzzzzzzzzzzzzzzzyyyyxxwwvuuvvuut.........yyyxxwttvu
(PID.TID 0000.0001)     16 utr......yy.zyyyyxxxxxxxwxxxxy.......yyyyyyyyyyyyyyyyyyyyyyyxxwvvvuuutts........xyyyxwvuuu
(PID.TID 0000.0001)     15 ttrr....xxx.xxxwxwwwwvwwvvvww.........xwxxxxxxxxxxxxxxxxxyyyxwwwvvuttssrr......wxxxxxwwvuu
(PID.TID 0000.0001)     14 ttsq....xyxwwxwvwwwvutuuuuuuu.........wwvwwwwvwvvwwwvwvvwwwwwwvvvuuutssrr.....vwwwwwwwvvvu
(PID.TID 0000.0001)     13 tttr....wwwvvvtttuuuutttssttt.........vvvuuuuuuutttttuuuuuvwwwuuuttttssrr....uvvvvvvvvvvut
(PID.TID 0000.0001)     12 sssssstttutssssrrrrrstrqqrrssqqrrq....uuttssssrrrrrrrrrrrstttssssrssrrqp.....uuuttssttssss
(PID.TID 0000.0001)     11 poprsssrqqqqqrqppooopqpoppppppppppp..sssrrr.rqpppqqqqppppqqqoppqqqqrqqpp....prsrqqqqqppppq
(PID.TID 0000.0001)     10 lllmoooonmnnmnnnnmmmmmmlmmlllmnnnnon.qqqppp.ppppppooooooooonmnnnonnooooo..nmoponnmnnnnnmll
(PID.TID 0000.0001)      9 ihhiiiihhhhhhiiihiiiiihhhiiiijjkkmnllnnnnn.mmmmnnnnmmmmnnmmlklllllklllll.mllmmllkjiijjihhi
(PID.TID 0000.0001)      8 eeeeeeeedefgggffeeffggffffggghiiiijjijklklkkkkkkkklllkkkkjjiiijkjjjjjjkj.kkjjiihggffffedde
(PID.TID 0000.0001)      7 cccccddeedddefeddddddddddefeefffffgggghiiiiiijjjihhgggghhhhhghhhhhhhiiiihiihhgfeddddddcccc
(PID.TID 0000.0001)      6 abbcccddcccccdddddccdddddddccddddddeeeeffggggghhgeddddddeeeeeeefggggghggggffeedccbbbbbbbba
(PID.TID 0000.0001)      5 bbbcccccccccccccccccccccbbccccdddddddcccddeeddeedcbbbbbbccccccdddeeeeeddddddccbbbbaaaaaaab
(PID.TID 0000.0001)      4 bbbbbbbaaabbbbbbbbbbbbaabbabbbbcbbbbbbbbbbbbbbbbbbbabbaaabbbbbbbbbbbbbbbbb..a--aaabbbaaabb
(PID.TID 0000.0001)      3 bbbbaaa-a-............................bbaaaaaaaaaaaaaaaaaaaaaaaaaaaaaaaab..aaaaaaaabbbaaaa
(PID.TID 0000.0001)      2 ..........................................baaaaaaaaaaaa-------aa..aaaa.....aaaaaaaaaaaa...
(PID.TID 0000.0001)      1 ..........................................................................................
(PID.TID 0000.0001) // =======================================================
(PID.TID 0000.0001) // END OF FIELD                                          =
(PID.TID 0000.0001) // =======================================================
(PID.TID 0000.0001) 
(PID.TID 0000.0001)  MDS_READ_FIELD: opening global file: lev_s.bin
(PID.TID 0000.0001) // =======================================================
(PID.TID 0000.0001) // Field Initial Salinity at iteration          1
(PID.TID 0000.0001) // CMIN =          2.975276947021484E+01
(PID.TID 0000.0001) // CMAX =          3.747562789916992E+01
(PID.TID 0000.0001) // CINT =          2.860317936650029E-01
(PID.TID 0000.0001) // SYMBOLS (CMIN->CMAX): -abcdefghijklmnopqrstuvwxyz+
(PID.TID 0000.0001) //                  0.0: .
(PID.TID 0000.0001) // RANGE I (Lo:Hi:Step):(   1:  90:   1)
(PID.TID 0000.0001) // RANGE J (Lo:Hi:Step):(  40:   1:  -1)
(PID.TID 0000.0001) // RANGE K (Lo:Hi:Step):(   1:   1:   1)
(PID.TID 0000.0001) // =======================================================
(PID.TID 0000.0001) K =   1
(PID.TID 0000.0001)                I=10      I=20      I=30      I=40      I=50      I=60      I=70      I=80      I=90
(PID.TID 0000.0001) |--J--|123456789|123456789|123456789|123456789|123456789|123456789|123456789|123456789|123456789|
(PID.TID 0000.0001)     40 qrrrr.oonnooopqtutt..................................................................mnnop
(PID.TID 0000.0001)     39 rssrrrrrrrqqpn...ut.....................................................mmmm........opqqqr
(PID.TID 0000.0001)     38 ssrrqqqqrrqpo...........................................................lkkll......onoqrrs
(PID.TID 0000.0001)     37 ssr..................................................................hg...lln...qppqr.rrrs
(PID.TID 0000.0001)     36 rr.........................................lkji....................feeegikmoop.pqrssssssss
(PID.TID 0000.0001)     35 rr.................................kkkk..lllllki...jijjj...........aa-....opqrrrrrrrssttss
(PID.TID 0000.0001)     34 ...................................jlll.kklllllk.ijkkkjih..................hlpqrqrrsstts..
(PID.TID 0000.0001)     33 ....................................iklkkkkkkkkkjkkjjjjjjii.................jmprrsstttttt.
(PID.TID 0000.0001)     32 ....................................iklllkllllllllkkkkkkkji................gilpstuuttuuut.
(PID.TID 0000.0001)     31 ....................................lmnonnnnoooonnmmmmllkjj..............loopqtvvvuuuuuu..
(PID.TID 0000.0001)     30 ...................................pppppppqqqqpppoooonnmlkk............ptvxwwvvwvvvvvvvu..
(PID.TID 0000.0001)     29 .................................pqqrqqqqqqrrrqqppqqqpponmll...........vxxxxxxwwwwwxwwxw..
(PID.TID 0000.0001)     28 ...............................prrrrrqqrrrrrsrrsrssssssrqonmm.........wxxxxxxxyyyyyyyyxx..
(PID.TID 0000.0001)     27 ..............xx..............prrrrrrrrrssssssstttssssssrqpoop...uwww.wwxxxyyy++zzzzyy....
(PID.TID 0000.0001)     26 ..............wxx...........ppqrrrrrrsssrrstsstttssrrrrrrrqppqqp.wwwvvwwwwwxyy+++zzyxw....
(PID.TID 0000.0001)     25 ..............wxxv...kkk...ooopqrrrrrssrrrrrrrssssqqpppppppppppoo...vvutuuvvwxyyyxxvvu....
(PID.TID 0000.0001)     24 ............uvvwwur.lmlk...nmm.pqqqqrrrrrqqqqrrqqrpppppooooonmmmnooo.uuuuuuttuvvvuvuut....
(PID.TID 0000.0001)     23 ............vvuvtqp.lmml...mln..ppppqpqppppppqpppppppppqppponnnnnoopm....xvuuuvvvvuuut....
(PID.TID 0000.0001)     22 r...........vuttsqqpnppn...mm.oppqqrrqqqqqqppppqqrrrqqqrrppppoopooomjj......uuvvvvvuttssrr
(PID.TID 0000.0001)     21 qmm........ttsssssssrsqon.....opqqqqqqqrrrrqqqssssssrrrrrrrrpqqqppomll........tvvvvuttssrr
(PID.TID 0000.0001)     20 sqq.......sttssrrsrrrrpol......p.qrqpqrrrrrrrstttttsssrrsssrqrrrrqqqpo.........wwwvvvuuutt
(PID.TID 0000.0001)     19 tsr.......ssssrrrrpppppnmmm...oqq.....qrqqsrrstttuuuttssttssrrssrrrrqq...........wwwvuvvvv
(PID.TID 0000.0001)     18 wut.......ssrrrrrqppppppppoooorrr...poqqqprrrttttuuutuuuuuutttttttutsss..........yyxwwxwxx
(PID.TID 0000.0001)     17 wwu.......s.rrrrrrqppppqqqqqqqr.....rrsrqrsssuusrtuuuvvvwwvvvuuuuutttss.........xyzyyyyxxx
(PID.TID 0000.0001)     16 vvt......ss.qrrssrqrqpqrrrrrrr.......ssrrstsstusrsuuuvwwwwxxwwvvvuttttsr........yz+zzzxwww
(PID.TID 0000.0001)     15 utss....stt.rrssstttsrrsrstsr.........ssstttssttsuuttuvvvvwxwwwwwuttsssrr......xyyyyxyyxwv
(PID.TID 0000.0001)     14 utts....sstrrssstuuuuuuuuuutt.........stttuutttttttuttttttuvvvvvvutsrqrrr.....vxxwwwwxwvwv
(PID.TID 0000.0001)     13 uuut....ttttttttuuuuuvtuuuuuu.........ttttuutttttttuutsssstttttstsqrqqppp....uwwwvuvvvutvv
(PID.TID 0000.0001)     12 ttttttttttttttttttttttssuuuuutuuut....tttttttttttsssssrrrrrrrqqqqqppppoo.....rvvuuttttttuu
(PID.TID 0000.0001)     11 rqsttttttttuuttttsssssrrstttttttsss..ttttts.tsssrrrrqqqqqppppoonnooooooo....oruttttsssrqrs
(PID.TID 0000.0001)     10 pppqrssrqqrqpqrssrrqqqqqqrrrrrrrrrrs.sssssr.rssrrqqpppppppooooonnnoooonn..moqrrrqqqqqqqqqq
(PID.TID 0000.0001)      9 oonooooooooonnnooooooooooppppppqqqqqrrrqrq.pppqqqqqppppppppppoooooooooll.lmoqqqqppooooopoo
(PID.TID 0000.0001)      8 nnnoonooooooonnnnnnnoooonoonoooppopqqqqqqqppopppqqqpppppppppppppppooopon.lnopppoooonnnnooo
(PID.TID 0000.0001)      7 ooooooooooopponnnooooooonnnnnonnooooooooopppppppoooooooooopppppppppoopqnnmnoooonnnonnnnnno
(PID.TID 0000.0001)      6 oooonnoonnnnooooooooooooonnnnnnnnnnnnnnnnoooopppooooooooooooooppppppppppoooooooonnnnnmnnnn
(PID.TID 0000.0001)      5 oooonnnnnnnnnnnnnnnnnoooooonnnnnnonnnnnnnnnoooooooooooonnnnnnooooooopoooonoooonnnnnnnooooo
(PID.TID 0000.0001)      4 oooonnnooonnnnnnnnnnnnnnoooooonnnooooonnnooooooooppponnnnmmmnnnnmnnoonnnnn..nnnooooooooooo
(PID.TID 0000.0001)      3 ooonnnnnnn............................nnoooooonnooooonnnnnnnoonnnnnnnnmmm..ooopooooooooooo
(PID.TID 0000.0001)      2 ..........................................pppooooonnnnnnoooppppo..nnnn.....qqqpppoooooo...
(PID.TID 0000.0001)      1 ..........................................................................................
(PID.TID 0000.0001) // =======================================================
(PID.TID 0000.0001) // END OF FIELD                                          =
(PID.TID 0000.0001) // =======================================================
(PID.TID 0000.0001) 
(PID.TID 0000.0001) Start initial hydrostatic pressure computation
(PID.TID 0000.0001) Pressure is predetermined for buoyancyRelation OCEANIC
(PID.TID 0000.0001) 
(PID.TID 0000.0001)  MDS_READ_FIELD: opening global file: trenberth_taux.bin
(PID.TID 0000.0001)  MDS_READ_FIELD: opening global file: trenberth_tauy.bin
(PID.TID 0000.0001)  MDS_READ_FIELD: opening global file: ncep_qnet.bin
(PID.TID 0000.0001)  MDS_READ_FIELD: opening global file: lev_sst.bin
(PID.TID 0000.0001)  MDS_READ_FIELD: opening global file: lev_sss.bin
(PID.TID 0000.0001) // =======================================================
(PID.TID 0000.0001) // Model current state
(PID.TID 0000.0001) // =======================================================
(PID.TID 0000.0001) 
S/R EXTERNAL_FIELDS_LOAD: Reading new data:   12    1         0  0.000000000000E+00
(PID.TID 0000.0001)  MDS_READ_FIELD: opening global file: trenberth_taux.bin
(PID.TID 0000.0001)  MDS_READ_FIELD: opening global file: trenberth_taux.bin
(PID.TID 0000.0001)  MDS_READ_FIELD: opening global file: trenberth_tauy.bin
(PID.TID 0000.0001)  MDS_READ_FIELD: opening global file: trenberth_tauy.bin
(PID.TID 0000.0001)  MDS_READ_FIELD: opening global file: ncep_qnet.bin
(PID.TID 0000.0001)  MDS_READ_FIELD: opening global file: ncep_qnet.bin
(PID.TID 0000.0001)  MDS_READ_FIELD: opening global file: lev_sst.bin
(PID.TID 0000.0001)  MDS_READ_FIELD: opening global file: lev_sst.bin
(PID.TID 0000.0001)  MDS_READ_FIELD: opening global file: lev_sss.bin
(PID.TID 0000.0001)  MDS_READ_FIELD: opening global file: lev_sss.bin
time,SST,SSS,fu,fv,Q,E-P,i0,i1,a,b =   0.0000E+00  5.3151E-02  3.4364E+01 -4.0500E-02 -6.3753E-02  2.6510E+02  0.0000E+00    12     1  5.0000E-01  5.0000E-01
time,fu0,fu1,fu =   0.0000E+00 -4.5368E-02 -3.5633E-02 -4.0500E-02  5.000000000000000E-01  5.000000000000000E-01
(PID.TID 0000.0001)  MDS_READ_FIELD: opening file: xx_hfluxm.0000000000.001.001.data
 cg2d: Sum(rhs),rhsMax =   1.47867829092263E-14  2.54952604282385E+00
time,SST,SSS,fu,fv,Q,E-P,i0,i1,a,b =   8.6400E+04  1.1350E-01  3.4387E+01 -4.0176E-02 -6.3320E-02  2.6514E+02  0.0000E+00    12     1  5.3333E-01  4.6667E-01
time,fu0,fu1,fu =   8.6400E+04 -4.5368E-02 -3.5633E-02 -4.0176E-02  5.333333333333333E-01  4.666666666666667E-01
 cg2d: Sum(rhs),rhsMax =   9.35362898246694E-15  2.62443215722193E+00
time,SST,SSS,fu,fv,Q,E-P,i0,i1,a,b =   1.7280E+05  1.7385E-01  3.4410E+01 -3.9851E-02 -6.2886E-02  2.6519E+02  0.0000E+00    12     1  5.6667E-01  4.3333E-01
time,fu0,fu1,fu =   1.7280E+05 -4.5368E-02 -3.5633E-02 -3.9851E-02  5.666666666666667E-01  4.333333333333333E-01
 cg2d: Sum(rhs),rhsMax =  -3.58879592710082E-14  2.39923446843112E+00
time,SST,SSS,fu,fv,Q,E-P,i0,i1,a,b =   2.5920E+05  2.3421E-01  3.4434E+01 -3.9527E-02 -6.2453E-02  2.6523E+02  0.0000E+00    12     1  6.0000E-01  4.0000E-01
time,fu0,fu1,fu =   2.5920E+05 -4.5368E-02 -3.5633E-02 -3.9527E-02  6.000000000000000E-01  4.000000000000000E-01
 cg2d: Sum(rhs),rhsMax =  -1.73888681231915E-14  2.21574359163945E+00
time,SST,SSS,fu,fv,Q,E-P,i0,i1,a,b =   3.4560E+05  2.9456E-01  3.4457E+01 -3.9202E-02 -6.2020E-02  2.6528E+02  0.0000E+00    12     1  6.3333E-01  3.6667E-01
time,fu0,fu1,fu =   3.4560E+05 -4.5368E-02 -3.5633E-02 -3.9202E-02  6.333333333333333E-01  3.666666666666667E-01
 cg2d: Sum(rhs),rhsMax =  -2.49522624784504E-14  2.00995911983743E+00
time,SST,SSS,fu,fv,Q,E-P,i0,i1,a,b =   4.3200E+05  3.5491E-01  3.4481E+01 -3.8878E-02 -6.1587E-02  2.6532E+02  0.0000E+00    12     1  6.6667E-01  3.3333E-01
time,fu0,fu1,fu =   4.3200E+05 -4.5368E-02 -3.5633E-02 -3.8878E-02  6.666666666666666E-01  3.333333333333334E-01
 cg2d: Sum(rhs),rhsMax =   1.62370117351429E-14  1.78612610581777E+00
time,SST,SSS,fu,fv,Q,E-P,i0,i1,a,b =   5.1840E+05  4.1526E-01  3.4504E+01 -3.8553E-02 -6.1154E-02  2.6537E+02  0.0000E+00    12     1  7.0000E-01  3.0000E-01
time,fu0,fu1,fu =   5.1840E+05 -4.5368E-02 -3.5633E-02 -3.8553E-02  7.000000000000000E-01  3.000000000000000E-01
 cg2d: Sum(rhs),rhsMax =  -7.82707232360735E-15  1.55419822325749E+00
time,SST,SSS,fu,fv,Q,E-P,i0,i1,a,b =   6.0480E+05  4.7561E-01  3.4527E+01 -3.8229E-02 -6.0721E-02  2.6541E+02  0.0000E+00    12     1  7.3333E-01  2.6667E-01
time,fu0,fu1,fu =   6.0480E+05 -4.5368E-02 -3.5633E-02 -3.8229E-02  7.333333333333333E-01  2.666666666666667E-01
 cg2d: Sum(rhs),rhsMax =   2.52853293858379E-14  1.32823756031038E+00
time,SST,SSS,fu,fv,Q,E-P,i0,i1,a,b =   6.9120E+05  5.3596E-01  3.4551E+01 -3.7904E-02 -6.0288E-02  2.6546E+02  0.0000E+00    12     1  7.6667E-01  2.3333E-01
time,fu0,fu1,fu =   6.9120E+05 -4.5368E-02 -3.5633E-02 -3.7904E-02  7.666666666666667E-01  2.333333333333333E-01
 cg2d: Sum(rhs),rhsMax =   6.97775170976911E-14  1.15613808773241E+00
time,SST,SSS,fu,fv,Q,E-P,i0,i1,a,b =   7.7760E+05  5.9632E-01  3.4574E+01 -3.7580E-02 -5.9855E-02  2.6550E+02  0.0000E+00    12     1  8.0000E-01  2.0000E-01
time,fu0,fu1,fu =   7.7760E+05 -4.5368E-02 -3.5633E-02 -3.7580E-02  8.000000000000000E-01  2.000000000000000E-01
 cg2d: Sum(rhs),rhsMax =  -4.81420459053084E-14  1.08384893719540E+00
(PID.TID 0000.0001) %CHECKPOINT        10 ckptA
(PID.TID 0000.0001)  MDS_READ_FIELD: opening global file: lev_t_an.bin
 --> objf_test(bi,bj)   =  0.000000000000000E+00
 --> objf_tracer(bi,bj) =  0.000000000000000E+00
 --> objf_atl(bi,bj)    =  0.000000000000000E+00
 --> objf_temp_tut(bi,bj)   =  0.620487684612252E+01
 --> objf_hflux_tut(bi,bj) =  0.353960737580476E-08
  local fc =  0.620487685320173E+01
 global fc =  0.620487685320173E+01
 ph-check fcpertplus =   6.20487685
(PID.TID 0000.0001)  MDS_READ_FIELD: opening file: xx_hfluxm.0000000000.001.001.data
 ph-check fcpertminus =   6.20487645
(PID.TID 0000.0001)  MDS_READ_FIELD: opening file: xx_hfluxm.0000000000.001.001.data
(PID.TID 0000.0001)  MDS_READ_FIELD: opening global file: bathymetry.bin
(PID.TID 0000.0001) // =======================================================
(PID.TID 0000.0001) // Field Model R_low (ini_masks_etc) at iteration          1
(PID.TID 0000.0001) // CMIN =         -5.200000000000000E+03
(PID.TID 0000.0001) // CMAX =         -1.200000000000000E+02
(PID.TID 0000.0001) // CINT =          1.881481481481482E+02
(PID.TID 0000.0001) // SYMBOLS (CMIN->CMAX): -abcdefghijklmnopqrstuvwxyz+
(PID.TID 0000.0001) //                  0.0: .
(PID.TID 0000.0001) // RANGE I (Lo:Hi:Step):(  -1:  92:   1)
(PID.TID 0000.0001) // RANGE J (Lo:Hi:Step):(  42:  -1:  -1)
(PID.TID 0000.0001) // RANGE K (Lo:Hi:Step):(   1:   1:   1)
(PID.TID 0000.0001) // =======================================================
(PID.TID 0000.0001) K =   1
(PID.TID 0000.0001) //                I=8       I=18      I=28      I=38      I=48      I=58      I=68      I=78      I=88
(PID.TID 0000.0001) // |--J--|101234567|901234567|901234567|901234567|901234567|901234567|901234567|901234567|901234567|9012
(PID.TID 0000.0001) //     42 ............................................zyxxmgfeeefefgimnpwwwy..+zyy.....yyyyoiiihhz+.....
(PID.TID 0000.0001) //     41 ..............................................................................................
(PID.TID 0000.0001) //     40 qlloqz+.++++zzz++++++..................................................................+++qllo
(PID.TID 0000.0001) //     39 slloorzzzzzzzzz+...++.....................................................yxxz........+zvusllo
(PID.TID 0000.0001) //     38 mqpporzzzzzz+++...........................................................zxxy+......zyyvsmqpp
(PID.TID 0000.0001) //     37 mmmuz..................................................................++...zy+...yttyy.+smmmu
(PID.TID 0000.0001) //     36 utt+.........................................mm++....................+++++++znmm.yoowssvuyutt+
(PID.TID 0000.0001) //     35 ++++.................................+zzz..rrmmkk+...+gghn...........+++....+nmiijlsoopuww++++
(PID.TID 0000.0001) //     34 .....................................+vvy.ggqyxv+y.ccdffhim..................+nihhikkihhm+....
(PID.TID 0000.0001) //     33 +.....................................uuz---h------aaabdefin+.................zqvddflifffw+...
(PID.TID 0000.0001) //     32 +.....................................+t----h---------acdfgnn................+++gdffkofffm+...
(PID.TID 0000.0001) //     31 ......................................-----ad--------abddegil..............qbaafccdhqqgddm....
(PID.TID 0000.0001) //     30 .....................................f----b--b------------abd............zfbb--fbcdosjfddi....
(PID.TID 0000.0001) //     29 ...................................tu----e---fjg----------abdf...........eaac--abfmijaadgi....
(PID.TID 0000.0001) //     28 .................................+xfl-------------------bdedefi.........qbaa---aemfbbaaejz....
(PID.TID 0000.0001) //     27 ................xx..............+wfgfpf--------eallc---bbbccefgi...+++x.qb-----akfa---ah......
(PID.TID 0000.0001) //     26 ................xnn...........+vd---dna------a--aicfna---aabdfghku.++xssuy-----bgca---ci......
(PID.TID 0000.0001) //     25 ................iiik...oo+...+ivd---doaa-bc--ilglf--aa---aabcghhkll...ssum+xaaacjbaabdjk......
(PID.TID 0000.0001) //     24 ..............xnheeft.kkk+...uii.aagdm----aa-----a-------bbbcdefjljjju.zummwwbbchba--abi......
(PID.TID 0000.0001) //     23 ..............xgheefp.iikw...uuw..fihi----fed-----eaaa--bbbbcdfflkjiiiq....zykccefa--abd......
(PID.TID 0000.0001) //     22 uss...........bbelffslffkk...zz.wqkeeqoheccdfa-----egabaabcdddegghliiiqq......xeeehheehccquss.
(PID.TID 0000.0001) //     21 bbeir........nbbcdjhqdddiiz.....wqfeelgghmedea-----bibbcddddddefghklnqoo........ieeflhgcccbbei
(PID.TID 0000.0001) //     20 bbder.......ldcccdgkccccidd......z.vkkktqqhegg----aaacddddddddefghkiiijl.........nhfa--gfcbbde
(PID.TID 0000.0001) //     19 cdaaf.......kddosggpaaaibbccx...+z+.....r+nlec---agaaabcddccddefikfgffff...........d---cjhcdaa
(PID.TID 0000.0001) //     18 d---d.......kglggvliaaaibbcaaeaiv++...qqzolhecccfdgkaabcdfccdeeikgfgffdd+..........d---djhd---
(PID.TID 0000.0001) //     17 c---c.......l.feewlfaaaoaa----aiv.....qqnllslmlofcdbaacceffffhhligfigeddj.........hd---ckhc---
(PID.TID 0000.0001) //     16 ba--c......tn.ddgnlfdaaqa-----lv.......vnllvllnwv--accivomfffhilhgfffeddjf........re--aeigba--
(PID.TID 0000.0001) //     15 b--dpz....+ll.ccdfhmdddlc----av.........otsxoomv---abccddfihgijkhgfffeejfff......+fd---ckfb--d
(PID.TID 0000.0001) //     14 c--mcl....weeqbaafilkfend--eagy.........hhstofft----aacdheefijkmjhhjijiffff.....zlfdaaadlfc--m
(PID.TID 0000.0001) //     13 cclbbg....nccobaaiddgkffqrqeaal.........eeutqfft------aaceeffhijlkjhhigfffq....+jgfodccflhcclb
(PID.TID 0000.0001) //     12 hgaaacw+iiicclemhdddfliigfdcaabfaaaz....ccsurqpc--------abcifffikiiihhggff.....kbbbdfffglhhgaa
(PID.TID 0000.0001) //     11 gcaaacbbifccennhbbdefnihgfdccaaaa----..dcccnt.ncab-------aabcdfilhggjiggff....l---abcefjlkgcaa
(PID.TID 0000.0001) //     10 fcaaccbdaacfrllfbbdegkmmljhfdddba----d.dcccfx.nyrebaba----abcdgilhfeegijgi..+w--aa-abcfilkfcaa
(PID.TID 0000.0001) //      9 ffcdcccaaaoqsolfdeehikihhlllgfedcccccdmdcccf.vyfaaaaaaaa--abdehmjhfeeefglv.++w-----abcdfklffcd
(PID.TID 0000.0001) //      8 iffjklcaafddffeeccvznkfffhhhlkjifgjkkfeeddfsyvcaaaaaaccdcccdfgjligedbbceg+.++xffn--cfddefliffj
(PID.TID 0000.0001) //      7 mqnnbbkkf--bmbaabbgtykfddeffeeddccdfhlffeelfbaaaaaacddeghgjgjlligeddaaabedfiiiiiisvkfkecchmqnn
(PID.TID 0000.0001) //      6 ca-------------aabcelttdddedddddccccdfkkiiffbaaaabcdgimmkmefecaaabbbaaabbdfiiiiispmmregifcca--
(PID.TID 0000.0001) //      5 -------a-------aaccehhhiddeddddddcccdfiikomodddefffmlmigedccaaaaaaaababbbdfiijsqgeccccbaa-----
(PID.TID 0000.0001) //      4 -ahebaabbbbbeihffgijiiiijpywnnpokkomkiiijmmmolkommmgffeeedccaaaaaabbcccefhmz..yjgeccccbaa--ahe
(PID.TID 0000.0001) //      3 ffhhrpjiiwyy............................yxotmjjjjgfeeeeeeddeffffheddeghjkyy..yqjgeddccdbbgffhh
(PID.TID 0000.0001) //      2 ............................................zyxxmgfeeefefgimnpwwwy..+zyy.....yyyyoiiihhz+.....
(PID.TID 0000.0001) //      1 ..............................................................................................
(PID.TID 0000.0001) //      0 qlloqz+.++++zzz++++++..................................................................+++qllo
(PID.TID 0000.0001) //     -1 slloorzzzzzzzzz+...++.....................................................yxxz........+zvusllo
(PID.TID 0000.0001) // =======================================================
(PID.TID 0000.0001) // END OF FIELD                                          =
(PID.TID 0000.0001) // =======================================================
(PID.TID 0000.0001) 
(PID.TID 0000.0001) // =======================================================
(PID.TID 0000.0001) // Field Model Ro_surf (ini_masks_etc) at iteration          1
(PID.TID 0000.0001) // CMIN =          1.000000000000000E+32
(PID.TID 0000.0001) // CMAX =         -1.000000000000000E+32
(PID.TID 0000.0001) // CINT =          0.000000000000000E+00
(PID.TID 0000.0001) // SYMBOLS (CMIN->CMAX): -abcdefghijklmnopqrstuvwxyz+
(PID.TID 0000.0001) //                  0.0: .
(PID.TID 0000.0001) // RANGE I (Lo:Hi:Step):(  -1:  92:   1)
(PID.TID 0000.0001) // RANGE J (Lo:Hi:Step):(  42:  -1:  -1)
(PID.TID 0000.0001) // RANGE K (Lo:Hi:Step):(   1:   1:   1)
(PID.TID 0000.0001) // =======================================================
(PID.TID 0000.0001) // =======================================================
(PID.TID 0000.0001) // END OF FIELD                                          =
(PID.TID 0000.0001) // =======================================================
(PID.TID 0000.0001) 
(PID.TID 0000.0001) // =======================================================
(PID.TID 0000.0001) // Field hFacC at iteration          1
(PID.TID 0000.0001) // CMIN =          1.000000000000000E+00
(PID.TID 0000.0001) // CMAX =          1.000000000000000E+00
(PID.TID 0000.0001) // CINT =          0.000000000000000E+00
(PID.TID 0000.0001) // SYMBOLS (CMIN->CMAX): -abcdefghijklmnopqrstuvwxyz+
(PID.TID 0000.0001) //                  0.0: .
(PID.TID 0000.0001) // RANGE I (Lo:Hi:Step):(  -1:  92:   1)
(PID.TID 0000.0001) // RANGE J (Lo:Hi:Step):(  42:  -1:  -1)
(PID.TID 0000.0001) // RANGE K (Lo:Hi:Step):(   1:   1:   1)
(PID.TID 0000.0001) // =======================================================
(PID.TID 0000.0001) // =======================================================
(PID.TID 0000.0001) // END OF FIELD                                          =
(PID.TID 0000.0001) // =======================================================
(PID.TID 0000.0001) 
(PID.TID 0000.0001) // =======================================================
(PID.TID 0000.0001) // Field hFacW at iteration          1
(PID.TID 0000.0001) // CMIN =          1.000000000000000E+00
(PID.TID 0000.0001) // CMAX =          1.000000000000000E+00
(PID.TID 0000.0001) // CINT =          0.000000000000000E+00
(PID.TID 0000.0001) // SYMBOLS (CMIN->CMAX): -abcdefghijklmnopqrstuvwxyz+
(PID.TID 0000.0001) //                  0.0: .
(PID.TID 0000.0001) // RANGE I (Lo:Hi:Step):(  -1:  92:   1)
(PID.TID 0000.0001) // RANGE J (Lo:Hi:Step):(  42:  -1:  -1)
(PID.TID 0000.0001) // RANGE K (Lo:Hi:Step):(   1:   1:   1)
(PID.TID 0000.0001) // =======================================================
(PID.TID 0000.0001) // =======================================================
(PID.TID 0000.0001) // END OF FIELD                                          =
(PID.TID 0000.0001) // =======================================================
(PID.TID 0000.0001) 
(PID.TID 0000.0001) // =======================================================
(PID.TID 0000.0001) // Field hFacS at iteration          1
(PID.TID 0000.0001) // CMIN =          1.000000000000000E+00
(PID.TID 0000.0001) // CMAX =          1.000000000000000E+00
(PID.TID 0000.0001) // CINT =          0.000000000000000E+00
(PID.TID 0000.0001) // SYMBOLS (CMIN->CMAX): -abcdefghijklmnopqrstuvwxyz+
(PID.TID 0000.0001) //                  0.0: .
(PID.TID 0000.0001) // RANGE I (Lo:Hi:Step):(  -1:  92:   1)
(PID.TID 0000.0001) // RANGE J (Lo:Hi:Step):(  42:  -1:  -1)
(PID.TID 0000.0001) // RANGE K (Lo:Hi:Step):(   1:   1:   1)
(PID.TID 0000.0001) // =======================================================
(PID.TID 0000.0001) // =======================================================
(PID.TID 0000.0001) // END OF FIELD                                          =
(PID.TID 0000.0001) // =======================================================
(PID.TID 0000.0001) 
(PID.TID 0000.0001) %MON surfExpanfCori_max           =   1.4265546244797E-04
(PID.TID 0000.0001) %MON surfExpanfCori_min           =  -1.4265546244797E-04
(PID.TID 0000.0001) %MON surfExpanfCori_mean          =  -1.2347858075529E-21
(PID.TID 0000.0001) %MON surfExpanfCori_sd            =   9.6599226301547E-05
(PID.TID 0000.0001) %MON surfExpanfCoriG_max          =   1.4151032568025E-04
(PID.TID 0000.0001) %MON surfExpanfCoriG_min          =  -1.4362679550910E-04
(PID.TID 0000.0001) %MON surfExpanfCoriG_mean         =  -3.5906698877274E-06
(PID.TID 0000.0001) %MON surfExpanfCoriG_sd           =   9.6548915696244E-05
(PID.TID 0000.0001) %MON surfExpanfCoriCos_max        =   1.4575362704741E-04
(PID.TID 0000.0001) %MON surfExpanfCoriCos_min        =   3.0322354601388E-05
(PID.TID 0000.0001) %MON surfExpanfCoriCos_mean       =   1.0288600773632E-04
(PID.TID 0000.0001) %MON surfExpanfCoriCos_sd         =   3.6784304327266E-05
(PID.TID 0000.0001) INI_CG2D: CG2D normalisation factor =  6.5682677425711703E-05
(PID.TID 0000.0001) 
(PID.TID 0000.0001)  MDS_READ_FIELD: opening global file: lev_t.bin
(PID.TID 0000.0001) // =======================================================
(PID.TID 0000.0001) // Field Initial Temperature at iteration          1
(PID.TID 0000.0001) // CMIN =         -1.900000000000000E+00
(PID.TID 0000.0001) // CMAX =          2.973338890075684E+01
(PID.TID 0000.0001) // CINT =          1.171606996324327E+00
(PID.TID 0000.0001) // SYMBOLS (CMIN->CMAX): -abcdefghijklmnopqrstuvwxyz+
(PID.TID 0000.0001) //                  0.0: .
(PID.TID 0000.0001) // RANGE I (Lo:Hi:Step):(   1:  90:   1)
(PID.TID 0000.0001) // RANGE J (Lo:Hi:Step):(  40:   1:  -1)
(PID.TID 0000.0001) // RANGE K (Lo:Hi:Step):(   1:   1:   1)
(PID.TID 0000.0001) // =======================================================
(PID.TID 0000.0001) K =   1
(PID.TID 0000.0001)                I=10      I=20      I=30      I=40      I=50      I=60      I=70      I=80      I=90
(PID.TID 0000.0001) |--J--|123456789|123456789|123456789|123456789|123456789|123456789|123456789|123456789|123456789|
(PID.TID 0000.0001)     40 bccdd.baa----abdedd..................................................................bbbbb
(PID.TID 0000.0001)     39 ccdddddccbbbaa...ed.....................................................----........bbbbbb
(PID.TID 0000.0001)     38 fffgfedeedddc...........................................................-----......cbbbcde
(PID.TID 0000.0001)     37 ghh..................................................................bc...bbc...edeed.defg
(PID.TID 0000.0001)     36 hh.........................................ddcb....................dcccbabccdd.eefghhihhih
(PID.TID 0000.0001)     35 hh.................................aaab..dddeddd...ffggg...........ccc....ddeeeffghijjjjih
(PID.TID 0000.0001)     34 ...................................babb.deeeeeee.ffffgghh..................ccdffghijkkkj..
(PID.TID 0000.0001)     33 ....................................accdddeeeeefffffgghhiii.................bcfijkkllllkk.
(PID.TID 0000.0001)     32 ....................................bdddeffgffgghhhhhiiijjj................dccglmnmmmmlll.
(PID.TID 0000.0001)     31 ....................................fghiiiijjjjjjkkkkklllkk..............ikkjjmooooonnmm..
(PID.TID 0000.0001)     30 ...................................mmmnmmmmmmmmmmmmmnnnnnmm............moqrrrqrqqqpppooo..
(PID.TID 0000.0001)     29 .................................pqqqqqpppppppppoppoppppponm...........ssssssrrrrrqqqqpp..
(PID.TID 0000.0001)     28 ...............................prssssrrrsssrrrrrrrrrrrrrqqpoo.........uttssstssrssrrrqqq..
(PID.TID 0000.0001)     27 ..............vv..............stuttuuuuutuuuuuuuuuuttttssrrqqq...stuu.vvvuuuuutttttsss....
(PID.TID 0000.0001)     26 ..............vvv...........uuvvvvvwwwwwwwwvvvvvvvvvuuutttsssttv.uuvxxwwwwwwvvvvuuttsr....
(PID.TID 0000.0001)     25 ..............wwwx...xxx...vvvxxxxxyyxxxxxxxxxwwwwwvvvvvuuuuuvwwx...xxxxxxwwwwwwvvutsr....
(PID.TID 0000.0001)     24 ............wwwwxyy.xxyy...wxx.yyyyyyyyyyyxxxxxxxxwwwwwwwvvwwxxyywww.xxxxxxxxxxwwwvvur....
(PID.TID 0000.0001)     23 ............xxxyyyz.xyyy...xxx..yyyyzzyyyyyyyyxxxxxxxxxwwwwwxxxwwwwwx....vwxxxxwwwwwvu....
(PID.TID 0000.0001)     22 w...........xxyyyzyyyyyz...xx.yyzzzzzzzzzzzzzyyzyyyyyyxxwwxxxxwvvvwwxw......yyyyxxxxxxwxxw
(PID.TID 0000.0001)     21 xxx........xxxxyyzzzzzzz+.....zyzzzzzzz++zzzzyyyyyyyyxxwvvwwwwvvvvvvvu........yyyyyyyyyxxx
(PID.TID 0000.0001)     20 xww.......xyyyyxyyzzzzzz+......z.zzzzz+++zzzzzzyyyyyxxxxwvwxwvuuuuuuut.........yyyyxxxxwww
(PID.TID 0000.0001)     19 vvv.......yyyyxwwxyzyyzzzzz...zzz.....++++++z++z+zzzyyyyxxxxwwvvvvvvvu...........yyxxxwwww
(PID.TID 0000.0001)     18 uut.......zzyyywwxyzyyyyzzyzzzzzz...z+z++++zz+++++++zzzyyyyxxwwwvvvvvtt..........yyxxwvvwv
(PID.TID 0000.0001)     17 uus.......z.yyyyyyxyzzyyyyyyyzz.....yzzzzzzzzzzzzzzzzzzyyyyxxwwvuuvvuut.........yyyxxwttvu
(PID.TID 0000.0001)     16 utr......yy.zyyyyxxxxxxxwxxxxy.......yyyyyyyyyyyyyyyyyyyyyyyxxwvvvuuutts........xyyyxwvuuu
(PID.TID 0000.0001)     15 ttrr....xxx.xxxwxwwwwvwwvvvww.........xwxxxxxxxxxxxxxxxxxyyyxwwwvvuttssrr......wxxxxxwwvuu
(PID.TID 0000.0001)     14 ttsq....xyxwwxwvwwwvutuuuuuuu.........wwvwwwwvwvvwwwvwvvwwwwwwvvvuuutssrr.....vwwwwwwwvvvu
(PID.TID 0000.0001)     13 tttr....wwwvvvtttuuuutttssttt.........vvvuuuuuuutttttuuuuuvwwwuuuttttssrr....uvvvvvvvvvvut
(PID.TID 0000.0001)     12 sssssstttutssssrrrrrstrqqrrssqqrrq....uuttssssrrrrrrrrrrrstttssssrssrrqp.....uuuttssttssss
(PID.TID 0000.0001)     11 poprsssrqqqqqrqppooopqpoppppppppppp..sssrrr.rqpppqqqqppppqqqoppqqqqrqqpp....prsrqqqqqppppq
(PID.TID 0000.0001)     10 lllmoooonmnnmnnnnmmmmmmlmmlllmnnnnon.qqqppp.ppppppooooooooonmnnnonnooooo..nmoponnmnnnnnmll
(PID.TID 0000.0001)      9 ihhiiiihhhhhhiiihiiiiihhhiiiijjkkmnllnnnnn.mmmmnnnnmmmmnnmmlklllllklllll.mllmmllkjiijjihhi
(PID.TID 0000.0001)      8 eeeeeeeedefgggffeeffggffffggghiiiijjijklklkkkkkkkklllkkkkjjiiijkjjjjjjkj.kkjjiihggffffedde
(PID.TID 0000.0001)      7 cccccddeedddefeddddddddddefeefffffgggghiiiiiijjjihhgggghhhhhghhhhhhhiiiihiihhgfeddddddcccc
(PID.TID 0000.0001)      6 abbcccddcccccdddddccdddddddccddddddeeeeffggggghhgeddddddeeeeeeefggggghggggffeedccbbbbbbbba
(PID.TID 0000.0001)      5 bbbcccccccccccccccccccccbbccccdddddddcccddeeddeedcbbbbbbccccccdddeeeeeddddddccbbbbaaaaaaab
(PID.TID 0000.0001)      4 bbbbbbbaaabbbbbbbbbbbbaabbabbbbcbbbbbbbbbbbbbbbbbbbabbaaabbbbbbbbbbbbbbbbb..a--aaabbbaaabb
(PID.TID 0000.0001)      3 bbbbaaa-a-............................bbaaaaaaaaaaaaaaaaaaaaaaaaaaaaaaaab..aaaaaaaabbbaaaa
(PID.TID 0000.0001)      2 ..........................................baaaaaaaaaaaa-------aa..aaaa.....aaaaaaaaaaaa...
(PID.TID 0000.0001)      1 ..........................................................................................
(PID.TID 0000.0001) // =======================================================
(PID.TID 0000.0001) // END OF FIELD                                          =
(PID.TID 0000.0001) // =======================================================
(PID.TID 0000.0001) 
(PID.TID 0000.0001)  MDS_READ_FIELD: opening global file: lev_s.bin
(PID.TID 0000.0001) // =======================================================
(PID.TID 0000.0001) // Field Initial Salinity at iteration          1
(PID.TID 0000.0001) // CMIN =          2.975276947021484E+01
(PID.TID 0000.0001) // CMAX =          3.747562789916992E+01
(PID.TID 0000.0001) // CINT =          2.860317936650029E-01
(PID.TID 0000.0001) // SYMBOLS (CMIN->CMAX): -abcdefghijklmnopqrstuvwxyz+
(PID.TID 0000.0001) //                  0.0: .
(PID.TID 0000.0001) // RANGE I (Lo:Hi:Step):(   1:  90:   1)
(PID.TID 0000.0001) // RANGE J (Lo:Hi:Step):(  40:   1:  -1)
(PID.TID 0000.0001) // RANGE K (Lo:Hi:Step):(   1:   1:   1)
(PID.TID 0000.0001) // =======================================================
(PID.TID 0000.0001) K =   1
(PID.TID 0000.0001)                I=10      I=20      I=30      I=40      I=50      I=60      I=70      I=80      I=90
(PID.TID 0000.0001) |--J--|123456789|123456789|123456789|123456789|123456789|123456789|123456789|123456789|123456789|
(PID.TID 0000.0001)     40 qrrrr.oonnooopqtutt..................................................................mnnop
(PID.TID 0000.0001)     39 rssrrrrrrrqqpn...ut.....................................................mmmm........opqqqr
(PID.TID 0000.0001)     38 ssrrqqqqrrqpo...........................................................lkkll......onoqrrs
(PID.TID 0000.0001)     37 ssr..................................................................hg...lln...qppqr.rrrs
(PID.TID 0000.0001)     36 rr.........................................lkji....................feeegikmoop.pqrssssssss
(PID.TID 0000.0001)     35 rr.................................kkkk..lllllki...jijjj...........aa-....opqrrrrrrrssttss
(PID.TID 0000.0001)     34 ...................................jlll.kklllllk.ijkkkjih..................hlpqrqrrsstts..
(PID.TID 0000.0001)     33 ....................................iklkkkkkkkkkjkkjjjjjjii.................jmprrsstttttt.
(PID.TID 0000.0001)     32 ....................................iklllkllllllllkkkkkkkji................gilpstuuttuuut.
(PID.TID 0000.0001)     31 ....................................lmnonnnnoooonnmmmmllkjj..............loopqtvvvuuuuuu..
(PID.TID 0000.0001)     30 ...................................pppppppqqqqpppoooonnmlkk............ptvxwwvvwvvvvvvvu..
(PID.TID 0000.0001)     29 .................................pqqrqqqqqqrrrqqppqqqpponmll...........vxxxxxxwwwwwxwwxw..
(PID.TID 0000.0001)     28 ...............................prrrrrqqrrrrrsrrsrssssssrqonmm.........wxxxxxxxyyyyyyyyxx..
(PID.TID 0000.0001)     27 ..............xx..............prrrrrrrrrssssssstttssssssrqpoop...uwww.wwxxxyyy++zzzzyy....
(PID.TID 0000.0001)     26 ..............wxx...........ppqrrrrrrsssrrstsstttssrrrrrrrqppqqp.wwwvvwwwwwxyy+++zzyxw....
(PID.TID 0000.0001)     25 ..............wxxv...kkk...ooopqrrrrrssrrrrrrrssssqqpppppppppppoo...vvutuuvvwxyyyxxvvu....
(PID.TID 0000.0001)     24 ............uvvwwur.lmlk...nmm.pqqqqrrrrrqqqqrrqqrpppppooooonmmmnooo.uuuuuuttuvvvuvuut....
(PID.TID 0000.0001)     23 ............vvuvtqp.lmml...mln..ppppqpqppppppqpppppppppqppponnnnnoopm....xvuuuvvvvuuut....
(PID.TID 0000.0001)     22 r...........vuttsqqpnppn...mm.oppqqrrqqqqqqppppqqrrrqqqrrppppoopooomjj......uuvvvvvuttssrr
(PID.TID 0000.0001)     21 qmm........ttsssssssrsqon.....opqqqqqqqrrrrqqqssssssrrrrrrrrpqqqppomll........tvvvvuttssrr
(PID.TID 0000.0001)     20 sqq.......sttssrrsrrrrpol......p.qrqpqrrrrrrrstttttsssrrsssrqrrrrqqqpo.........wwwvvvuuutt
(PID.TID 0000.0001)     19 tsr.......ssssrrrrpppppnmmm...oqq.....qrqqsrrstttuuuttssttssrrssrrrrqq...........wwwvuvvvv
(PID.TID 0000.0001)     18 wut.......ssrrrrrqppppppppoooorrr...poqqqprrrttttuuutuuuuuutttttttutsss..........yyxwwxwxx
(PID.TID 0000.0001)     17 wwu.......s.rrrrrrqppppqqqqqqqr.....rrsrqrsssuusrtuuuvvvwwvvvuuuuutttss.........xyzyyyyxxx
(PID.TID 0000.0001)     16 vvt......ss.qrrssrqrqpqrrrrrrr.......ssrrstsstusrsuuuvwwwwxxwwvvvuttttsr........yz+zzzxwww
(PID.TID 0000.0001)     15 utss....stt.rrssstttsrrsrstsr.........ssstttssttsuuttuvvvvwxwwwwwuttsssrr......xyyyyxyyxwv
(PID.TID 0000.0001)     14 utts....sstrrssstuuuuuuuuuutt.........stttuutttttttuttttttuvvvvvvutsrqrrr.....vxxwwwwxwvwv
(PID.TID 0000.0001)     13 uuut....ttttttttuuuuuvtuuuuuu.........ttttuutttttttuutsssstttttstsqrqqppp....uwwwvuvvvutvv
(PID.TID 0000.0001)     12 ttttttttttttttttttttttssuuuuutuuut....tttttttttttsssssrrrrrrrqqqqqppppoo.....rvvuuttttttuu
(PID.TID 0000.0001)     11 rqsttttttttuuttttsssssrrstttttttsss..ttttts.tsssrrrrqqqqqppppoonnooooooo....oruttttsssrqrs
(PID.TID 0000.0001)     10 pppqrssrqqrqpqrssrrqqqqqqrrrrrrrrrrs.sssssr.rssrrqqpppppppooooonnnoooonn..moqrrrqqqqqqqqqq
(PID.TID 0000.0001)      9 oonooooooooonnnooooooooooppppppqqqqqrrrqrq.pppqqqqqppppppppppoooooooooll.lmoqqqqppooooopoo
(PID.TID 0000.0001)      8 nnnoonooooooonnnnnnnoooonoonoooppopqqqqqqqppopppqqqpppppppppppppppooopon.lnopppoooonnnnooo
(PID.TID 0000.0001)      7 ooooooooooopponnnooooooonnnnnonnooooooooopppppppoooooooooopppppppppoopqnnmnoooonnnonnnnnno
(PID.TID 0000.0001)      6 oooonnoonnnnooooooooooooonnnnnnnnnnnnnnnnoooopppooooooooooooooppppppppppoooooooonnnnnmnnnn
(PID.TID 0000.0001)      5 oooonnnnnnnnnnnnnnnnnoooooonnnnnnonnnnnnnnnoooooooooooonnnnnnooooooopoooonoooonnnnnnnooooo
(PID.TID 0000.0001)      4 oooonnnooonnnnnnnnnnnnnnoooooonnnooooonnnooooooooppponnnnmmmnnnnmnnoonnnnn..nnnooooooooooo
(PID.TID 0000.0001)      3 ooonnnnnnn............................nnoooooonnooooonnnnnnnoonnnnnnnnmmm..ooopooooooooooo
(PID.TID 0000.0001)      2 ..........................................pppooooonnnnnnoooppppo..nnnn.....qqqpppoooooo...
(PID.TID 0000.0001)      1 ..........................................................................................
(PID.TID 0000.0001) // =======================================================
(PID.TID 0000.0001) // END OF FIELD                                          =
(PID.TID 0000.0001) // =======================================================
(PID.TID 0000.0001) 
(PID.TID 0000.0001) Start initial hydrostatic pressure computation
(PID.TID 0000.0001) Pressure is predetermined for buoyancyRelation OCEANIC
(PID.TID 0000.0001) 
(PID.TID 0000.0001)  MDS_READ_FIELD: opening global file: trenberth_taux.bin
(PID.TID 0000.0001)  MDS_READ_FIELD: opening global file: trenberth_tauy.bin
(PID.TID 0000.0001)  MDS_READ_FIELD: opening global file: ncep_qnet.bin
(PID.TID 0000.0001)  MDS_READ_FIELD: opening global file: lev_sst.bin
(PID.TID 0000.0001)  MDS_READ_FIELD: opening global file: lev_sss.bin
(PID.TID 0000.0001) // =======================================================
(PID.TID 0000.0001) // Model current state
(PID.TID 0000.0001) // =======================================================
(PID.TID 0000.0001) 
S/R EXTERNAL_FIELDS_LOAD: Reading new data:   12    1         0  0.000000000000E+00
(PID.TID 0000.0001)  MDS_READ_FIELD: opening global file: trenberth_taux.bin
(PID.TID 0000.0001)  MDS_READ_FIELD: opening global file: trenberth_taux.bin
(PID.TID 0000.0001)  MDS_READ_FIELD: opening global file: trenberth_tauy.bin
(PID.TID 0000.0001)  MDS_READ_FIELD: opening global file: trenberth_tauy.bin
(PID.TID 0000.0001)  MDS_READ_FIELD: opening global file: ncep_qnet.bin
(PID.TID 0000.0001)  MDS_READ_FIELD: opening global file: ncep_qnet.bin
(PID.TID 0000.0001)  MDS_READ_FIELD: opening global file: lev_sst.bin
(PID.TID 0000.0001)  MDS_READ_FIELD: opening global file: lev_sst.bin
(PID.TID 0000.0001)  MDS_READ_FIELD: opening global file: lev_sss.bin
(PID.TID 0000.0001)  MDS_READ_FIELD: opening global file: lev_sss.bin
time,SST,SSS,fu,fv,Q,E-P,i0,i1,a,b =   0.0000E+00  5.3151E-02  3.4364E+01 -4.0500E-02 -6.3753E-02  2.6510E+02  0.0000E+00    12     1  5.0000E-01  5.0000E-01
time,fu0,fu1,fu =   0.0000E+00 -4.5368E-02 -3.5633E-02 -4.0500E-02  5.000000000000000E-01  5.000000000000000E-01
(PID.TID 0000.0001)  MDS_READ_FIELD: opening file: xx_hfluxm.0000000000.001.001.data
 cg2d: Sum(rhs),rhsMax =   1.47867829092263E-14  2.54952604282385E+00
time,SST,SSS,fu,fv,Q,E-P,i0,i1,a,b =   8.6400E+04  1.1350E-01  3.4387E+01 -4.0176E-02 -6.3320E-02  2.6514E+02  0.0000E+00    12     1  5.3333E-01  4.6667E-01
time,fu0,fu1,fu =   8.6400E+04 -4.5368E-02 -3.5633E-02 -4.0176E-02  5.333333333333333E-01  4.666666666666667E-01
 cg2d: Sum(rhs),rhsMax =   9.35362898246694E-15  2.62443215722193E+00
time,SST,SSS,fu,fv,Q,E-P,i0,i1,a,b =   1.7280E+05  1.7385E-01  3.4410E+01 -3.9851E-02 -6.2886E-02  2.6519E+02  0.0000E+00    12     1  5.6667E-01  4.3333E-01
time,fu0,fu1,fu =   1.7280E+05 -4.5368E-02 -3.5633E-02 -3.9851E-02  5.666666666666667E-01  4.333333333333333E-01
 cg2d: Sum(rhs),rhsMax =  -2.16493489801906E-14  2.39923446837441E+00
time,SST,SSS,fu,fv,Q,E-P,i0,i1,a,b =   2.5920E+05  2.3421E-01  3.4434E+01 -3.9527E-02 -6.2453E-02  2.6523E+02  0.0000E+00    12     1  6.0000E-01  4.0000E-01
time,fu0,fu1,fu =   2.5920E+05 -4.5368E-02 -3.5633E-02 -3.9527E-02  6.000000000000000E-01  4.000000000000000E-01
 cg2d: Sum(rhs),rhsMax =   2.64371857738865E-14  2.21574359138673E+00
time,SST,SSS,fu,fv,Q,E-P,i0,i1,a,b =   3.4560E+05  2.9456E-01  3.4457E+01 -3.9202E-02 -6.2020E-02  2.6528E+02  0.0000E+00    12     1  6.3333E-01  3.6667E-01
time,fu0,fu1,fu =   3.4560E+05 -4.5368E-02 -3.5633E-02 -3.9202E-02  6.333333333333333E-01  3.666666666666667E-01
 cg2d: Sum(rhs),rhsMax =  -2.63677968348475E-16  2.00995911924630E+00
time,SST,SSS,fu,fv,Q,E-P,i0,i1,a,b =   4.3200E+05  3.5491E-01  3.4481E+01 -3.8878E-02 -6.1587E-02  2.6532E+02  0.0000E+00    12     1  6.6667E-01  3.3333E-01
time,fu0,fu1,fu =   4.3200E+05 -4.5368E-02 -3.5633E-02 -3.8878E-02  6.666666666666666E-01  3.333333333333334E-01
 cg2d: Sum(rhs),rhsMax =  -1.63757896132211E-14  1.78612610484523E+00
time,SST,SSS,fu,fv,Q,E-P,i0,i1,a,b =   5.1840E+05  4.1526E-01  3.4504E+01 -3.8553E-02 -6.1154E-02  2.6537E+02  0.0000E+00    12     1  7.0000E-01  3.0000E-01
time,fu0,fu1,fu =   5.1840E+05 -4.5368E-02 -3.5633E-02 -3.8553E-02  7.000000000000000E-01  3.000000000000000E-01
 cg2d: Sum(rhs),rhsMax =  -3.55687701514285E-14  1.55419822194659E+00
time,SST,SSS,fu,fv,Q,E-P,i0,i1,a,b =   6.0480E+05  4.7561E-01  3.4527E+01 -3.8229E-02 -6.0721E-02  2.6541E+02  0.0000E+00    12     1  7.3333E-01  2.6667E-01
time,fu0,fu1,fu =   6.0480E+05 -4.5368E-02 -3.5633E-02 -3.8229E-02  7.333333333333333E-01  2.666666666666667E-01
 cg2d: Sum(rhs),rhsMax =  -3.30430127704062E-14  1.32823755873823E+00
time,SST,SSS,fu,fv,Q,E-P,i0,i1,a,b =   6.9120E+05  5.3596E-01  3.4551E+01 -3.7904E-02 -6.0288E-02  2.6546E+02  0.0000E+00    12     1  7.6667E-01  2.3333E-01
time,fu0,fu1,fu =   6.9120E+05 -4.5368E-02 -3.5633E-02 -3.7904E-02  7.666666666666667E-01  2.333333333333333E-01
 cg2d: Sum(rhs),rhsMax =   6.59472476627343E-14  1.15613808757237E+00
time,SST,SSS,fu,fv,Q,E-P,i0,i1,a,b =   7.7760E+05  5.9632E-01  3.4574E+01 -3.7580E-02 -5.9855E-02  2.6550E+02  0.0000E+00    12     1  8.0000E-01  2.0000E-01
time,fu0,fu1,fu =   7.7760E+05 -4.5368E-02 -3.5633E-02 -3.7580E-02  8.000000000000000E-01  2.000000000000000E-01
 cg2d: Sum(rhs),rhsMax =   2.53269627492614E-14  1.08384893696561E+00
(PID.TID 0000.0001) %CHECKPOINT        10 ckptB
(PID.TID 0000.0001)  MDS_READ_FIELD: opening global file: lev_t_an.bin
 --> objf_test(bi,bj)   =  0.000000000000000E+00
 --> objf_tracer(bi,bj) =  0.000000000000000E+00
 --> objf_atl(bi,bj)    =  0.000000000000000E+00
 --> objf_temp_tut(bi,bj)   =  0.620487605516222E+01
 --> objf_hflux_tut(bi,bj) =  0.353960737580476E-08
  local fc =  0.620487606224144E+01
 global fc =  0.620487606224144E+01
(PID.TID 0000.0001)  MDS_READ_FIELD: opening file: xx_hfluxm.0000000000.001.001.data
grad-res -------------------------------
 grad-res     0    4   79   27    1    1    1    1   0.620487645063E+01 0.620487685320E+01 0.620487606224E+01
 grad-res     0    4    4 1875 2315    1    1    1   0.395480198291E-05 0.395480145965E-05 0.132309975198E-06
(PID.TID 0000.0001)   ADM  precision_derivative_cost =    6.20487645062633E+00
(PID.TID 0000.0001)   ADM  precision_derivative_grad =    3.95480198290886E-06
 ph-grd  ierr ---------------------------
 ph-grd  ierr =  0, icomp =  1875, ichknum =  4
(PID.TID 0000.0001) 
(PID.TID 0000.0001) // =======================================================
(PID.TID 0000.0001) // Gradient check results  >>> START <<<
(PID.TID 0000.0001) // =======================================================
(PID.TID 0000.0001) 
(PID.TID 0000.0001) 
(PID.TID 0000.0001)  EPS =  0.100E+00
(PID.TID 0000.0001) grdchk output:            procId               I        ITILEPOS        JTILEPOS           LAYER            X(I)      X(I)+/-EPS
(PID.TID 0000.0001) grdchk output:                                FC             FC1             FC2 FC1-FC2/(2*EPS)    ADJ GRAD(FC)   1-FDGRD/ADGRD
(PID.TID 0000.0001) grdchk output:                 0               1              76              27               1 0.000000000E+00 -.100000000E+00
(PID.TID 0000.0001) grdchk output:                   0.620487645E+01 0.620487710E+01 0.620487581E+01 0.646200093E-05 0.646200194E-05 0.156731925E-06
(PID.TID 0000.0001) 
(PID.TID 0000.0001) grdchk output:                 0               2              77              27               1 0.000000000E+00 -.100000000E+00
(PID.TID 0000.0001) grdchk output:                   0.620487645E+01 0.620487705E+01 0.620487586E+01 0.594095964E-05 0.594096026E-05 0.104819591E-06
(PID.TID 0000.0001) 
(PID.TID 0000.0001) grdchk output:                 0               3              78              27               1 0.000000000E+00 -.100000000E+00
(PID.TID 0000.0001) grdchk output:                   0.620487645E+01 0.620487693E+01 0.620487599E+01 0.468971613E-05 0.468971439E-05 -.370225183E-06
(PID.TID 0000.0001) 
(PID.TID 0000.0001) grdchk output:                 0               4              79              27               1 0.000000000E+00 -.100000000E+00
(PID.TID 0000.0001) grdchk output:                   0.620487645E+01 0.620487685E+01 0.620487606E+01 0.395480146E-05 0.395480198E-05 0.132309975E-06
(PID.TID 0000.0001) 
(PID.TID 0000.0001) 
(PID.TID 0000.0001) // =======================================================
(PID.TID 0000.0001) // Gradient check results  >>> END <<<
(PID.TID 0000.0001) // =======================================================
(PID.TID 0000.0001) 
(PID.TID 0000.0001)   Seconds in section "ALL                    [THE_MODEL_MAIN]":
(PID.TID 0000.0001)           User time:  268.601157
(PID.TID 0000.0001)         System time:  220.368506
(PID.TID 0000.0001)     Wall clock time:  552.627078
(PID.TID 0000.0001)          No. starts: 1
(PID.TID 0000.0001)           No. stops: 1
(PID.TID 0000.0001)   Seconds in section "INITIALISE_FIXED       [THE_MODEL_MAIN]":
(PID.TID 0000.0001)           User time:  0.239964001
(PID.TID 0000.0001)         System time:  0.0759890028
(PID.TID 0000.0001)     Wall clock time:  3.18227196
(PID.TID 0000.0001)          No. starts: 1
(PID.TID 0000.0001)           No. stops: 1
(PID.TID 0000.0001)   Seconds in section "ADTHE_MAIN_LOOP          [ADJOINT RUN]":
(PID.TID 0000.0001)           User time:  166.91463
(PID.TID 0000.0001)         System time:  125.753881
(PID.TID 0000.0001)     Wall clock time:  327.330521
(PID.TID 0000.0001)          No. starts: 1
(PID.TID 0000.0001)           No. stops: 1
(PID.TID 0000.0001)   Seconds in section "LOAD_FIELDS_DRIVER  [FORWARD_STEP]":
(PID.TID 0000.0001)           User time:  0.275002956
(PID.TID 0000.0001)         System time:  0.11000149
(PID.TID 0000.0001)     Wall clock time:  0.475696325
(PID.TID 0000.0001)          No. starts: 180
(PID.TID 0000.0001)           No. stops: 180
(PID.TID 0000.0001)   Seconds in section "EXTERNAL_FLDS_LOAD [LOAD_FLDS_DRIVER]":
(PID.TID 0000.0001)           User time:  0.273947716
(PID.TID 0000.0001)         System time:  0.116005823
(PID.TID 0000.0001)     Wall clock time:  0.485496998
(PID.TID 0000.0001)          No. starts: 190
(PID.TID 0000.0001)           No. stops: 190
(PID.TID 0000.0001)   Seconds in section "DO_ATMOSPHERIC_PHYS [FORWARD_STEP]":
(PID.TID 0000.0001)           User time:  0.00897979736
(PID.TID 0000.0001)         System time:  0.000999450684
(PID.TID 0000.0001)     Wall clock time:  0.0072760582
(PID.TID 0000.0001)          No. starts: 180
(PID.TID 0000.0001)           No. stops: 180
(PID.TID 0000.0001)   Seconds in section "DO_OCEANIC_PHYS     [FORWARD_STEP]":
(PID.TID 0000.0001)           User time:  43.1243551
(PID.TID 0000.0001)         System time:  0.0339953601
(PID.TID 0000.0001)     Wall clock time:  43.2005882
(PID.TID 0000.0001)          No. starts: 180
(PID.TID 0000.0001)           No. stops: 180
(PID.TID 0000.0001)   Seconds in section "THERMODYNAMICS      [FORWARD_STEP]":
(PID.TID 0000.0001)           User time:  44.9061627
(PID.TID 0000.0001)         System time:  0.036986962
(PID.TID 0000.0001)     Wall clock time:  45.7387655
(PID.TID 0000.0001)          No. starts: 180
(PID.TID 0000.0001)           No. stops: 180
(PID.TID 0000.0001)   Seconds in section "DYNAMICS            [FORWARD_STEP]":
(PID.TID 0000.0001)           User time:  71.3972558
(PID.TID 0000.0001)         System time:  0.0529875159
(PID.TID 0000.0001)     Wall clock time:  71.5090778
(PID.TID 0000.0001)          No. starts: 180
(PID.TID 0000.0001)           No. stops: 180
(PID.TID 0000.0001)   Seconds in section "SOLVE_FOR_PRESSURE  [FORWARD_STEP]":
(PID.TID 0000.0001)           User time:  43.4104249
(PID.TID 0000.0001)         System time:  0.00998643041
(PID.TID 0000.0001)     Wall clock time:  43.4689422
(PID.TID 0000.0001)          No. starts: 180
(PID.TID 0000.0001)           No. stops: 180
(PID.TID 0000.0001)   Seconds in section "MOM_CORRECTION_STEP [FORWARD_STEP]":
(PID.TID 0000.0001)           User time:  4.51328564
(PID.TID 0000.0001)         System time:  0.00100001693
(PID.TID 0000.0001)     Wall clock time:  4.51869273
(PID.TID 0000.0001)          No. starts: 180
(PID.TID 0000.0001)           No. stops: 180
(PID.TID 0000.0001)   Seconds in section "UPDATE_ETAH         [FORWARD_STEP]":
(PID.TID 0000.0001)           User time:  0.0370378494
(PID.TID 0000.0001)         System time:  0.000999450684
(PID.TID 0000.0001)     Wall clock time:  0.0378961563
(PID.TID 0000.0001)          No. starts: 180
(PID.TID 0000.0001)           No. stops: 180
(PID.TID 0000.0001)   Seconds in section "TRC_CORRECTION_STEP [FORWARD_STEP]":
(PID.TID 0000.0001)           User time:  0.971780539
(PID.TID 0000.0001)         System time:  0.00299072266
(PID.TID 0000.0001)     Wall clock time:  0.975332022
(PID.TID 0000.0001)          No. starts: 180
(PID.TID 0000.0001)           No. stops: 180
(PID.TID 0000.0001)   Seconds in section "BLOCKING_EXCHANGES  [FORWARD_STEP]":
(PID.TID 0000.0001)           User time:  0.803964138
(PID.TID 0000.0001)         System time:  0.000991821289
(PID.TID 0000.0001)     Wall clock time:  0.803389788
(PID.TID 0000.0001)          No. starts: 180
(PID.TID 0000.0001)           No. stops: 180
(PID.TID 0000.0001)   Seconds in section "DO_STATEVARS_TAVE   [FORWARD_STEP]":
(PID.TID 0000.0001)           User time:  0.591923475
(PID.TID 0000.0001)         System time:  0.00100001693
(PID.TID 0000.0001)     Wall clock time:  0.596912384
(PID.TID 0000.0001)          No. starts: 180
(PID.TID 0000.0001)           No. stops: 180
(PID.TID 0000.0001)   Seconds in section "MONITOR             [FORWARD_STEP]":
(PID.TID 0000.0001)           User time:  1.07882833
(PID.TID 0000.0001)         System time:  0.0020070672
(PID.TID 0000.0001)     Wall clock time:  1.08250856
(PID.TID 0000.0001)          No. starts: 180
(PID.TID 0000.0001)           No. stops: 180
(PID.TID 0000.0001)   Seconds in section "COST_TILE           [FORWARD_STEP]":
(PID.TID 0000.0001)           User time:  4.58823729
(PID.TID 0000.0001)         System time:  0.
(PID.TID 0000.0001)     Wall clock time:  4.60404873
(PID.TID 0000.0001)          No. starts: 180
(PID.TID 0000.0001)           No. stops: 180
(PID.TID 0000.0001)   Seconds in section "DO_THE_MODEL_IO     [FORWARD_STEP]":
(PID.TID 0000.0001)           User time:  1.2248373
(PID.TID 0000.0001)         System time:  10.4714082
(PID.TID 0000.0001)     Wall clock time:  16.363009
(PID.TID 0000.0001)          No. starts: 180
(PID.TID 0000.0001)           No. stops: 180
(PID.TID 0000.0001)   Seconds in section "DO_WRITE_PICKUP     [FORWARD_STEP]":
(PID.TID 0000.0001)           User time:  4.7562747
(PID.TID 0000.0001)         System time:  178.621873
(PID.TID 0000.0001)     Wall clock time:  223.902644
(PID.TID 0000.0001)          No. starts: 180
(PID.TID 0000.0001)           No. stops: 180
(PID.TID 0000.0001)   Seconds in section "CTRL_PACK           [THE_MODEL_MAIN]":
(PID.TID 0000.0001)           User time:  0.0199890137
(PID.TID 0000.0001)         System time:  0.00699615479
(PID.TID 0000.0001)     Wall clock time:  0.0884032249
(PID.TID 0000.0001)          No. starts: 1
(PID.TID 0000.0001)           No. stops: 1
(PID.TID 0000.0001)   Seconds in section "CTRL_PACK     [THE_MODEL_MAIN]":
(PID.TID 0000.0001)           User time:  0.0220031738
(PID.TID 0000.0001)         System time:  0.00500488281
(PID.TID 0000.0001)     Wall clock time:  0.0383059978
(PID.TID 0000.0001)          No. starts: 1
(PID.TID 0000.0001)           No. stops: 1
(PID.TID 0000.0001)   Seconds in section "GRDCHK_MAIN         [THE_MODEL_MAIN]":
(PID.TID 0000.0001)           User time:  101.404572
(PID.TID 0000.0001)         System time:  94.5266342
(PID.TID 0000.0001)     Wall clock time:  221.986896
(PID.TID 0000.0001)          No. starts: 1
(PID.TID 0000.0001)           No. stops: 1
(PID.TID 0000.0001)   Seconds in section "INITIALISE_VARIA    [THE_MAIN_LOOP]":
(PID.TID 0000.0001)           User time:  2.21368408
(PID.TID 0000.0001)         System time:  4.1053772
(PID.TID 0000.0001)     Wall clock time:  9.76328397
(PID.TID 0000.0001)          No. starts: 8
(PID.TID 0000.0001)           No. stops: 8
(PID.TID 0000.0001)   Seconds in section "MAIN LOOP           [THE_MAIN_LOOP]":
(PID.TID 0000.0001)           User time:  99.1299591
(PID.TID 0000.0001)         System time:  90.3622894
(PID.TID 0000.0001)     Wall clock time:  211.876591
(PID.TID 0000.0001)          No. starts: 8
(PID.TID 0000.0001)           No. stops: 8
(PID.TID 0000.0001)   Seconds in section "FORWARD_STEP        [THE_MAIN_LOOP]":
(PID.TID 0000.0001)           User time:  97.9061127
(PID.TID 0000.0001)         System time:  90.3493042
(PID.TID 0000.0001)     Wall clock time:  210.595098
(PID.TID 0000.0001)          No. starts: 80
(PID.TID 0000.0001)           No. stops: 80
(PID.TID 0000.0001)   Seconds in section "COST_FINAL         [ADJOINT SPIN-DOWN]":
(PID.TID 0000.0001)           User time:  0.0630187988
(PID.TID 0000.0001)         System time:  0.0119934082
(PID.TID 0000.0001)     Wall clock time:  0.121069193
(PID.TID 0000.0001)          No. starts: 8
(PID.TID 0000.0001)           No. stops: 8
(PID.TID 0000.0001) // ======================================================
(PID.TID 0000.0001) // Tile <-> Tile communication statistics
(PID.TID 0000.0001) // ======================================================
(PID.TID 0000.0001) // o Tile number: 000001
(PID.TID 0000.0001) //         No. X exchanges =              0
(PID.TID 0000.0001) //            Max. X spins =              0
(PID.TID 0000.0001) //            Min. X spins =     1000000000
(PID.TID 0000.0001) //          Total. X spins =              0
(PID.TID 0000.0001) //            Avg. X spins =       0.00E+00
(PID.TID 0000.0001) //         No. Y exchanges =              0
(PID.TID 0000.0001) //            Max. Y spins =              0
(PID.TID 0000.0001) //            Min. Y spins =     1000000000
(PID.TID 0000.0001) //          Total. Y spins =              0
(PID.TID 0000.0001) //            Avg. Y spins =       0.00E+00
(PID.TID 0000.0001) // o Thread number: 000001
(PID.TID 0000.0001) //            No. barriers =         440024
(PID.TID 0000.0001) //      Max. barrier spins =              1
(PID.TID 0000.0001) //      Min. barrier spins =              1
(PID.TID 0000.0001) //     Total barrier spins =         440024
(PID.TID 0000.0001) //      Avg. barrier spins =       1.00E+00
