(PID.TID 0000.0001) 
(PID.TID 0000.0001) // ======================================================
(PID.TID 0000.0001) //                      MITgcm UV
(PID.TID 0000.0001) //                      =========
(PID.TID 0000.0001) // ======================================================
(PID.TID 0000.0001) // execution environment starting up...
(PID.TID 0000.0001) 
(PID.TID 0000.0001) // MITgcmUV version:  checkpoint61v
(PID.TID 0000.0001) // Build user:        jmc
(PID.TID 0000.0001) // Build host:        faulks
(PID.TID 0000.0001) // Build date:        Fri Oct  9 16:21:37 EDT 2009
(PID.TID 0000.0001) 
(PID.TID 0000.0001) // =======================================================
(PID.TID 0000.0001) // Execution Environment parameter file "eedata"
(PID.TID 0000.0001) // =======================================================
(PID.TID 0000.0001) ># Example "eedata" file
(PID.TID 0000.0001) ># Lines beginning "#" are comments
(PID.TID 0000.0001) ># nTx - No. threads per process in X
(PID.TID 0000.0001) ># nTy - No. threads per process in Y
(PID.TID 0000.0001) > &EEPARMS
(PID.TID 0000.0001) > nTx=1,
(PID.TID 0000.0001) > nTy=1,
(PID.TID 0000.0001) > &
(PID.TID 0000.0001) ># Note: Some systems use & as the
(PID.TID 0000.0001) ># namelist terminator. Other systems
(PID.TID 0000.0001) ># use a / character (as shown here).
(PID.TID 0000.0001) 
(PID.TID 0000.0001) // =======================================================
(PID.TID 0000.0001) // Computational Grid Specification ( see files "SIZE.h" )
(PID.TID 0000.0001) //                                  ( and "eedata"       )
(PID.TID 0000.0001) // =======================================================
(PID.TID 0000.0001)      nPx =    1 ; /* No. processes in X */
(PID.TID 0000.0001)      nPy =    1 ; /* No. processes in Y */
(PID.TID 0000.0001)      nSx =    2 ; /* No. tiles in X per process */
(PID.TID 0000.0001)      nSy =    2 ; /* No. tiles in Y per process */
(PID.TID 0000.0001)      sNx =   45 ; /* Tile size in X */
(PID.TID 0000.0001)      sNy =   20 ; /* Tile size in Y */
(PID.TID 0000.0001)      OLx =    2 ; /* Tile overlap distance in X */
(PID.TID 0000.0001)      OLy =    2 ; /* Tile overlap distance in Y */
(PID.TID 0000.0001)      nTx =    1 ; /* No. threads in X per process */
(PID.TID 0000.0001)      nTy =    1 ; /* No. threads in Y per process */
(PID.TID 0000.0001)       Nr =   15 ; /* No. levels in the vertical   */
(PID.TID 0000.0001)       Nx =   90 ; /* Total domain size in X ( = nPx*nSx*sNx ) */
(PID.TID 0000.0001)       Ny =   40 ; /* Total domain size in Y ( = nPy*nSy*sNy ) */
(PID.TID 0000.0001)   nTiles =    4 ; /* Total no. tiles per process ( = nSx*nSy ) */
(PID.TID 0000.0001)   nProcs =    1 ; /* Total no. processes ( = nPx*nPy ) */
(PID.TID 0000.0001) nThreads =    1 ; /* Total no. threads per process ( = nTx*nTy ) */
(PID.TID 0000.0001) usingMPI =    F ; /* Flag used to control whether MPI is in use */
(PID.TID 0000.0001)                   /*  note: To execute a program with MPI calls */
(PID.TID 0000.0001)                   /*  it must be launched appropriately e.g     */
(PID.TID 0000.0001)                   /*  "mpirun -np 64 ......"                    */
(PID.TID 0000.0001) useCoupler=    F ;/* Flag used to control communications with   */
(PID.TID 0000.0001)                   /*  other model components, through a coupler */
(PID.TID 0000.0001) printMapIncludesZeros=    F ; /* print zeros in Std.Output maps */
(PID.TID 0000.0001) maxLengthPrt1D=   65 /* maxLength of 1D array printed to StdOut */
(PID.TID 0000.0001) 
(PID.TID 0000.0001) // ======================================================
(PID.TID 0000.0001) // Mapping of tiles to threads
(PID.TID 0000.0001) // ======================================================
(PID.TID 0000.0001) // -o- Thread   1, tiles (   1:   2,   1:   2)
(PID.TID 0000.0001) 
(PID.TID 0000.0001) // ======================================================
(PID.TID 0000.0001) // Tile <-> Tile connectvity table
(PID.TID 0000.0001) // ======================================================
(PID.TID 0000.0001) // Tile number: 000001 (process no. = 000001)
(PID.TID 0000.0001) //        WEST: Tile = 000002, Process = 000001, Comm = put
(PID.TID 0000.0001) //                bi = 000002, bj = 000001
(PID.TID 0000.0001) //        EAST: Tile = 000002, Process = 000001, Comm = put
(PID.TID 0000.0001) //                bi = 000002, bj = 000001
(PID.TID 0000.0001) //       SOUTH: Tile = 000003, Process = 000001, Comm = put
(PID.TID 0000.0001) //                bi = 000001, bj = 000002
(PID.TID 0000.0001) //       NORTH: Tile = 000003, Process = 000001, Comm = put
(PID.TID 0000.0001) //                bi = 000001, bj = 000002
(PID.TID 0000.0001) // Tile number: 000002 (process no. = 000001)
(PID.TID 0000.0001) //        WEST: Tile = 000001, Process = 000001, Comm = put
(PID.TID 0000.0001) //                bi = 000001, bj = 000001
(PID.TID 0000.0001) //        EAST: Tile = 000001, Process = 000001, Comm = put
(PID.TID 0000.0001) //                bi = 000001, bj = 000001
(PID.TID 0000.0001) //       SOUTH: Tile = 000004, Process = 000001, Comm = put
(PID.TID 0000.0001) //                bi = 000002, bj = 000002
(PID.TID 0000.0001) //       NORTH: Tile = 000004, Process = 000001, Comm = put
(PID.TID 0000.0001) //                bi = 000002, bj = 000002
(PID.TID 0000.0001) // Tile number: 000003 (process no. = 000001)
(PID.TID 0000.0001) //        WEST: Tile = 000004, Process = 000001, Comm = put
(PID.TID 0000.0001) //                bi = 000002, bj = 000002
(PID.TID 0000.0001) //        EAST: Tile = 000004, Process = 000001, Comm = put
(PID.TID 0000.0001) //                bi = 000002, bj = 000002
(PID.TID 0000.0001) //       SOUTH: Tile = 000001, Process = 000001, Comm = put
(PID.TID 0000.0001) //                bi = 000001, bj = 000001
(PID.TID 0000.0001) //       NORTH: Tile = 000001, Process = 000001, Comm = put
(PID.TID 0000.0001) //                bi = 000001, bj = 000001
(PID.TID 0000.0001) // Tile number: 000004 (process no. = 000001)
(PID.TID 0000.0001) //        WEST: Tile = 000003, Process = 000001, Comm = put
(PID.TID 0000.0001) //                bi = 000001, bj = 000002
(PID.TID 0000.0001) //        EAST: Tile = 000003, Process = 000001, Comm = put
(PID.TID 0000.0001) //                bi = 000001, bj = 000002
(PID.TID 0000.0001) //       SOUTH: Tile = 000002, Process = 000001, Comm = put
(PID.TID 0000.0001) //                bi = 000002, bj = 000001
(PID.TID 0000.0001) //       NORTH: Tile = 000002, Process = 000001, Comm = put
(PID.TID 0000.0001) //                bi = 000002, bj = 000001
(PID.TID 0000.0001) 
(PID.TID 0000.0001) // =======================================================
(PID.TID 0000.0001) // Model parameter file "data"
(PID.TID 0000.0001) // =======================================================
(PID.TID 0000.0001) ># ====================
(PID.TID 0000.0001) ># | Model parameters |
(PID.TID 0000.0001) ># ====================
(PID.TID 0000.0001) >#
(PID.TID 0000.0001) ># Continuous equation parameters
(PID.TID 0000.0001) > &PARM01
(PID.TID 0000.0001) > tRef = 15*20.,
(PID.TID 0000.0001) > sRef = 15*35.,
(PID.TID 0000.0001) > viscAr=1.E-3,
(PID.TID 0000.0001) > viscAh=5.E5,
(PID.TID 0000.0001) > diffKhT=0.,
(PID.TID 0000.0001) > diffKrT=3.E-5,
(PID.TID 0000.0001) > diffKhS=0.,
(PID.TID 0000.0001) > diffKrS=3.E-5,
(PID.TID 0000.0001) > rhonil=1035.,
(PID.TID 0000.0001) > rhoConstFresh=1000.,
(PID.TID 0000.0001) > eosType = 'JMD95Z',
(PID.TID 0000.0001) > ivdc_kappa=100.,
(PID.TID 0000.0001) > implicitDiffusion=.TRUE.,
(PID.TID 0000.0001) > allowFreezing=.TRUE.,
(PID.TID 0000.0001) > exactConserv=.TRUE.,
(PID.TID 0000.0001) > useRealFreshWaterFlux=.TRUE.,
(PID.TID 0000.0001) > useCDscheme=.TRUE.,
(PID.TID 0000.0001) ># turn on looped cells
(PID.TID 0000.0001) > hFacMin=.05,
(PID.TID 0000.0001) > hFacMindr=50.,
(PID.TID 0000.0001) ># set precision of data files
(PID.TID 0000.0001) > readBinaryPrec=32,
(PID.TID 0000.0001) > &
(PID.TID 0000.0001) >
(PID.TID 0000.0001) ># Elliptic solver parameters
(PID.TID 0000.0001) > &PARM02
(PID.TID 0000.0001) > cg2dMaxIters=500,
(PID.TID 0000.0001) > cg2dTargetResidual=1.E-19,
(PID.TID 0000.0001) > &
(PID.TID 0000.0001) >
(PID.TID 0000.0001) ># Time stepping parameters
(PID.TID 0000.0001) > &PARM03
(PID.TID 0000.0001) > nIter0=       0,
(PID.TID 0000.0001) >#nTimeSteps = 360,
(PID.TID 0000.0001) > nTimeSteps = 10,
(PID.TID 0000.0001) > deltaTmom = 1800.,
(PID.TID 0000.0001) > tauCD =     321428.,
(PID.TID 0000.0001) > deltaTtracer= 86400.,
(PID.TID 0000.0001) > deltaTClock = 86400.,
(PID.TID 0000.0001) > deltaTfreesurf= 86400.,
(PID.TID 0000.0001) > abEps = 0.1,
(PID.TID 0000.0001) > pChkptFreq= 2592000.,
(PID.TID 0000.0001) > dumpFreq=   2592000.,
(PID.TID 0000.0001) > taveFreq=   2592000.,
(PID.TID 0000.0001) > monitorFreq=1.,
(PID.TID 0000.0001) ># 2 months restoring timescale for temperature
(PID.TID 0000.0001) >#tauThetaClimRelax=  5184000.,
(PID.TID 0000.0001) ># 6 months restoring timescale for salinity
(PID.TID 0000.0001) > tauSaltClimRelax = 15552000.,
(PID.TID 0000.0001) > periodicExternalForcing=.TRUE.,
(PID.TID 0000.0001) > externForcingPeriod=2592000.,
(PID.TID 0000.0001) > externForcingCycle=31104000.,
(PID.TID 0000.0001) > &
(PID.TID 0000.0001) >
(PID.TID 0000.0001) ># Gridding parameters
(PID.TID 0000.0001) > &PARM04
(PID.TID 0000.0001) > usingSphericalPolarGrid=.TRUE.,
(PID.TID 0000.0001) > delR= 50.,  70., 100., 140., 190.,
(PID.TID 0000.0001) >      240., 290., 340., 390., 440.,
(PID.TID 0000.0001) >      490., 540., 590., 640., 690.,
(PID.TID 0000.0001) > ygOrigin=-80.,
(PID.TID 0000.0001) > dySpacing=4.,
(PID.TID 0000.0001) > dxSpacing=4.,
(PID.TID 0000.0001) > &
(PID.TID 0000.0001) >
(PID.TID 0000.0001) ># Input datasets
(PID.TID 0000.0001) > &PARM05
(PID.TID 0000.0001) > bathyFile=      'bathymetry.bin',
(PID.TID 0000.0001) > hydrogThetaFile='lev_t.bin',
(PID.TID 0000.0001) > hydrogSaltFile= 'lev_s.bin',
(PID.TID 0000.0001) > zonalWindFile=  'trenberth_taux.bin',
(PID.TID 0000.0001) > meridWindFile=  'trenberth_tauy.bin',
(PID.TID 0000.0001) > thetaClimFile=  'lev_sst.bin',
(PID.TID 0000.0001) > saltClimFile=   'lev_sss.bin',
(PID.TID 0000.0001) > surfQFile=      'ncep_qnet.bin',
(PID.TID 0000.0001) ># fresh water flux is turned off, uncomment next line to turn on
(PID.TID 0000.0001) ># (not recommened together with surface salinity restoring)
(PID.TID 0000.0001) ># EmPmRFile=      'ncep_emp.bin',
(PID.TID 0000.0001) > &
(PID.TID 0000.0001) 
(PID.TID 0000.0001) S/R INI_PARMS ; starts to read PARM01
(PID.TID 0000.0001) S/R INI_PARMS ; read PARM01 : OK
(PID.TID 0000.0001) S/R INI_PARMS: No request for barotropic solver
(PID.TID 0000.0001) S/R INI_PARMS: => Use implicitFreeSurface as default
(PID.TID 0000.0001) S/R INI_PARMS ; starts to read PARM02
(PID.TID 0000.0001) S/R INI_PARMS ; read PARM02 : OK
(PID.TID 0000.0001) S/R INI_PARMS ; starts to read PARM03
(PID.TID 0000.0001) S/R INI_PARMS ; read PARM03 : OK
(PID.TID 0000.0001) S/R INI_PARMS ; starts to read PARM04
(PID.TID 0000.0001) S/R INI_PARMS ; read PARM04 : OK
(PID.TID 0000.0001) S/R INI_PARMS ; starts to read PARM05
(PID.TID 0000.0001) S/R INI_PARMS ; read PARM05 : OK
(PID.TID 0000.0001)  PACKAGES_BOOT: opening data.pkg
(PID.TID 0000.0001)  OPEN_COPY_DATA_FILE: opening file data.pkg
(PID.TID 0000.0001) // =======================================================
(PID.TID 0000.0001) // Parameter file "data.pkg"
(PID.TID 0000.0001) // =======================================================
(PID.TID 0000.0001) >#
(PID.TID 0000.0001) ># ********
(PID.TID 0000.0001) ># Packages
(PID.TID 0000.0001) ># ********
(PID.TID 0000.0001) > &PACKAGES
(PID.TID 0000.0001) > useGMRedi    = .TRUE.,
(PID.TID 0000.0001) > useGrdchk    = .TRUE.,
(PID.TID 0000.0001) > &
(PID.TID 0000.0001) 
(PID.TID 0000.0001)  PACKAGES_BOOT: finished reading data.pkg
(PID.TID 0000.0001)  GM_READPARMS: opening data.gmredi
(PID.TID 0000.0001)  OPEN_COPY_DATA_FILE: opening file data.gmredi
(PID.TID 0000.0001) // =======================================================
(PID.TID 0000.0001) // Parameter file "data.gmredi"
(PID.TID 0000.0001) // =======================================================
(PID.TID 0000.0001) ># GM+Redi package parameters:
(PID.TID 0000.0001) >#     GM_Small_Number  :: epsilon used in computing the slope
(PID.TID 0000.0001) >#     GM_slopeSqCutoff :: slope^2 cut-off value
(PID.TID 0000.0001) >
(PID.TID 0000.0001) >#-from MOM :
(PID.TID 0000.0001) ># GM_background_K: 	G & Mc.W  diffusion coefficient
(PID.TID 0000.0001) ># GM_maxSlope    :	max slope of isopycnals
(PID.TID 0000.0001) ># GM_Scrit       :	transition for scaling diffusion coefficient
(PID.TID 0000.0001) ># GM_Sd          :	half width scaling for diffusion coefficient
(PID.TID 0000.0001) ># GM_taper_scheme:	slope clipping or one of the tapering schemes
(PID.TID 0000.0001) ># GM_Kmin_horiz  :	horizontal diffusion minimum value
(PID.TID 0000.0001) >
(PID.TID 0000.0001) >#-Option parameters (needs to "define" options in GMREDI_OPTIONS.h")
(PID.TID 0000.0001) ># GM_isopycK     :	isopycnal diffusion coefficient (default=GM_background_K)
(PID.TID 0000.0001) ># GM_AdvForm     :	turn on GM Advective form       (default=Skew flux form)
(PID.TID 0000.0001) >
(PID.TID 0000.0001) > &GM_PARM01
(PID.TID 0000.0001) >  GM_Small_Number  = 1.D-20,
(PID.TID 0000.0001) >  GM_slopeSqCutoff = 1.D+08,
(PID.TID 0000.0001) >  GM_background_K    = 1.e+3,
(PID.TID 0000.0001) >  GM_taper_scheme    = 'dm95',
(PID.TID 0000.0001) >  GM_maxSlope        = 1.e-2,
(PID.TID 0000.0001) >  GM_Kmin_horiz      = 50.,
(PID.TID 0000.0001) >  GM_Scrit           = 4.e-3,
(PID.TID 0000.0001) >  GM_Sd              = 1.e-3,
(PID.TID 0000.0001) ># GM_Visbeck_alpha   = 0.,
(PID.TID 0000.0001) ># GM_Visbeck_length  = 2.e+5,
(PID.TID 0000.0001) ># GM_Visbeck_depth   = 1.e+3,
(PID.TID 0000.0001) ># GM_Visbeck_maxval_K= 2.5e+3,
(PID.TID 0000.0001) > &
(PID.TID 0000.0001) >
(PID.TID 0000.0001) >
(PID.TID 0000.0001) 
(PID.TID 0000.0001)  GM_READPARMS: finished reading data.gmredi
(PID.TID 0000.0001) OPTIM_READPARMS: opening data.optim
(PID.TID 0000.0001)  OPEN_COPY_DATA_FILE: opening file data.optim
(PID.TID 0000.0001) // =======================================================
(PID.TID 0000.0001) // Parameter file "data.optim"
(PID.TID 0000.0001) // =======================================================
(PID.TID 0000.0001) >#
(PID.TID 0000.0001) ># ********************************
(PID.TID 0000.0001) ># Off-line optimization parameters
(PID.TID 0000.0001) ># ********************************
(PID.TID 0000.0001) > &OPTIM
(PID.TID 0000.0001) > optimcycle=0,
(PID.TID 0000.0001) > numiter=1,
(PID.TID 0000.0001) > nfunc=3,
(PID.TID 0000.0001) > fmin=5.74,
(PID.TID 0000.0001) > iprint=10,
(PID.TID 0000.0001) > nupdate=8,
(PID.TID 0000.0001) > &
(PID.TID 0000.0001) 
(PID.TID 0000.0001) OPTIM_READPARMS: finished reading data.optim
(PID.TID 0000.0001) CTRL_READPARMS: opening data.ctrl
(PID.TID 0000.0001)  OPEN_COPY_DATA_FILE: opening file data.ctrl
(PID.TID 0000.0001) // =======================================================
(PID.TID 0000.0001) // Parameter file "data.ctrl"
(PID.TID 0000.0001) // =======================================================
(PID.TID 0000.0001) >#
(PID.TID 0000.0001) >#
(PID.TID 0000.0001) ># *********************
(PID.TID 0000.0001) ># ECCO controlvariables
(PID.TID 0000.0001) ># *********************
(PID.TID 0000.0001) > &CTRL_NML
(PID.TID 0000.0001) > xx_hfluxm_file      = 'xx_hfluxm',
(PID.TID 0000.0001) > &
(PID.TID 0000.0001) >#
(PID.TID 0000.0001) ># *********************
(PID.TID 0000.0001) ># names for ctrl_pack/unpack
(PID.TID 0000.0001) ># *********************
(PID.TID 0000.0001) > &CTRL_PACKNAMES
(PID.TID 0000.0001) > &
(PID.TID 0000.0001) >
(PID.TID 0000.0001) 
(PID.TID 0000.0001) CTRL_READPARMS: finished reading data.ctrl
(PID.TID 0000.0001) COST_READPARMS: opening data.cost
(PID.TID 0000.0001)  OPEN_COPY_DATA_FILE: opening file data.cost
(PID.TID 0000.0001) // =======================================================
(PID.TID 0000.0001) // Parameter file "data.cost"
(PID.TID 0000.0001) // =======================================================
(PID.TID 0000.0001) >#
(PID.TID 0000.0001) >#
(PID.TID 0000.0001) ># ******************
(PID.TID 0000.0001) ># ECCO cost function
(PID.TID 0000.0001) ># ******************
(PID.TID 0000.0001) > &COST_NML
(PID.TID 0000.0001) >#
(PID.TID 0000.0001) > mult_temp_tut  = 1.,
(PID.TID 0000.0001) > mult_hflux_tut = 2.,
(PID.TID 0000.0001) > lastinterval= 864000.,
(PID.TID 0000.0001) >#lastinterval=31104000.,
(PID.TID 0000.0001) > &
(PID.TID 0000.0001) 
(PID.TID 0000.0001) COST_READPARMS: finished reading data.cost
(PID.TID 0000.0001) S/R COST_WEIGHTS: Temperature weights loaded from: Err_levitus_15layer.bin
(PID.TID 0000.0001)  MDS_READ_FIELD: opening global file: Err_hflux.bin
(PID.TID 0000.0001) GRDCHK_READPARMS: opening data.grdchk
(PID.TID 0000.0001)  OPEN_COPY_DATA_FILE: opening file data.grdchk
(PID.TID 0000.0001) // =======================================================
(PID.TID 0000.0001) // Parameter file "data.grdchk"
(PID.TID 0000.0001) // =======================================================
(PID.TID 0000.0001) >
(PID.TID 0000.0001) ># *******************
(PID.TID 0000.0001) ># ECCO gradient check
(PID.TID 0000.0001) ># *******************
(PID.TID 0000.0001) > &GRDCHK_NML
(PID.TID 0000.0001) > grdchk_eps       = 1.d-1,
(PID.TID 0000.0001) ># iGloPos          = 76,
(PID.TID 0000.0001) ># jGloPos          = 27,
(PID.TID 0000.0001) ># kGloPos          = 1,
(PID.TID 0000.0001) > nbeg             = 1,
(PID.TID 0000.0001) > nstep            = 1,
(PID.TID 0000.0001) > nend             = 3,
(PID.TID 0000.0001) > grdchkvarindex   =24,
(PID.TID 0000.0001) > &
(PID.TID 0000.0001) 
(PID.TID 0000.0001) GRDCHK_READPARMS: finished reading data.grdchk
(PID.TID 0000.0001) 
(PID.TID 0000.0001) // =======================================================
(PID.TID 0000.0001) // Gradient check configuration  >>> START <<<
(PID.TID 0000.0001) // =======================================================
(PID.TID 0000.0001) 
(PID.TID 0000.0001)   eps:                              0.100E+00
(PID.TID 0000.0001)   First location:                           1
(PID.TID 0000.0001)   Last location:                            3
(PID.TID 0000.0001)   Increment:                                1
(PID.TID 0000.0001) 
(PID.TID 0000.0001) // =======================================================
(PID.TID 0000.0001) // Gradient check configuration  >>> END <<<
(PID.TID 0000.0001) // =======================================================
(PID.TID 0000.0001) 
(PID.TID 0000.0001) SET_PARMS: done
(PID.TID 0000.0001) Enter INI_VERTICAL_GRID: setInterFDr=    T ; setCenterDr=    F
(PID.TID 0000.0001) %MON XC_max                       =   3.5800000000000E+02
(PID.TID 0000.0001) %MON XC_min                       =   2.0000000000000E+00
(PID.TID 0000.0001) %MON XC_mean                      =   1.8000000000000E+02
(PID.TID 0000.0001) %MON XC_sd                        =   1.0391663325314E+02
(PID.TID 0000.0001) %MON XG_max                       =   3.5600000000000E+02
(PID.TID 0000.0001) %MON XG_min                       =   0.0000000000000E+00
(PID.TID 0000.0001) %MON XG_mean                      =   1.7800000000000E+02
(PID.TID 0000.0001) %MON XG_sd                        =   1.0391663325314E+02
(PID.TID 0000.0001) %MON DXC_max                      =   4.4443898815675E+05
(PID.TID 0000.0001) %MON DXC_min                      =   9.2460385861875E+04
(PID.TID 0000.0001) %MON DXC_mean                     =   3.1372497618153E+05
(PID.TID 0000.0001) %MON DXC_sd                       =   1.1216447457560E+05
(PID.TID 0000.0001) %MON DXF_max                      =   4.4443898815675E+05
(PID.TID 0000.0001) %MON DXF_min                      =   9.2460385861875E+04
(PID.TID 0000.0001) %MON DXF_mean                     =   3.1372497618153E+05
(PID.TID 0000.0001) %MON DXF_sd                       =   1.1216447457560E+05
(PID.TID 0000.0001) %MON DXG_max                      =   4.4470989340816E+05
(PID.TID 0000.0001) %MON DXG_min                      =   7.7223062580781E+04
(PID.TID 0000.0001) %MON DXG_mean                     =   3.1353386340261E+05
(PID.TID 0000.0001) %MON DXG_sd                       =   1.1256651772502E+05
(PID.TID 0000.0001) %MON DXV_max                      =   4.4470989340816E+05
(PID.TID 0000.0001) %MON DXV_min                      =   7.7223062580781E+04
(PID.TID 0000.0001) %MON DXV_mean                     =   3.1353386340261E+05
(PID.TID 0000.0001) %MON DXV_sd                       =   1.1256651772502E+05
(PID.TID 0000.0001) %MON YC_max                       =   7.8000000000000E+01
(PID.TID 0000.0001) %MON YC_min                       =  -7.8000000000000E+01
(PID.TID 0000.0001) %MON YC_mean                      =   0.0000000000000E+00
(PID.TID 0000.0001) %MON YC_sd                        =   4.6173585522461E+01
(PID.TID 0000.0001) %MON YG_max                       =   7.6000000000000E+01
(PID.TID 0000.0001) %MON YG_min                       =  -8.0000000000000E+01
(PID.TID 0000.0001) %MON YG_mean                      =  -2.0000000000000E+00
(PID.TID 0000.0001) %MON YG_sd                        =   4.6173585522461E+01
(PID.TID 0000.0001) %MON DYC_max                      =   4.4470989340816E+05
(PID.TID 0000.0001) %MON DYC_min                      =   4.4470989340816E+05
(PID.TID 0000.0001) %MON DYC_mean                     =   4.4470989340816E+05
(PID.TID 0000.0001) %MON DYC_sd                       =   5.2968971431255E-09
(PID.TID 0000.0001) %MON DYF_max                      =   4.4470989340816E+05
(PID.TID 0000.0001) %MON DYF_min                      =   4.4470989340816E+05
(PID.TID 0000.0001) %MON DYF_mean                     =   4.4470989340816E+05
(PID.TID 0000.0001) %MON DYF_sd                       =   5.2968971431255E-09
(PID.TID 0000.0001) %MON DYG_max                      =   4.4470989340816E+05
(PID.TID 0000.0001) %MON DYG_min                      =   4.4470989340816E+05
(PID.TID 0000.0001) %MON DYG_mean                     =   4.4470989340816E+05
(PID.TID 0000.0001) %MON DYG_sd                       =   5.2968971431255E-09
(PID.TID 0000.0001) %MON DYU_max                      =   4.4470989340816E+05
(PID.TID 0000.0001) %MON DYU_min                      =   4.4470989340816E+05
(PID.TID 0000.0001) %MON DYU_mean                     =   4.4470989340816E+05
(PID.TID 0000.0001) %MON DYU_sd                       =   5.2968971431255E-09
(PID.TID 0000.0001) %MON RA_max                       =   1.9760627980089E+11
(PID.TID 0000.0001) %MON RA_min                       =   4.1109698667290E+10
(PID.TID 0000.0001) %MON RA_mean                      =   1.3948826965196E+11
(PID.TID 0000.0001) %MON RA_sd                        =   4.9870522472902E+10
(PID.TID 0000.0001) %MON RAW_max                      =   1.9760627980089E+11
(PID.TID 0000.0001) %MON RAW_min                      =   4.1109698667290E+10
(PID.TID 0000.0001) %MON RAW_mean                     =   1.3948826965196E+11
(PID.TID 0000.0001) %MON RAW_sd                       =   4.9870522472902E+10
(PID.TID 0000.0001) %MON RAS_max                      =   1.9772672958215E+11
(PID.TID 0000.0001) %MON RAS_min                      =   3.4334886267983E+10
(PID.TID 0000.0001) %MON RAS_mean                     =   1.3940329716694E+11
(PID.TID 0000.0001) %MON RAS_sd                       =   5.0049278732353E+10
(PID.TID 0000.0001) %MON RAZ_max                      =   1.9772672958215E+11
(PID.TID 0000.0001) %MON RAZ_min                      =   3.4334886267983E+10
(PID.TID 0000.0001) %MON RAZ_mean                     =   1.3940329716694E+11
(PID.TID 0000.0001) %MON RAZ_sd                       =   5.0049278732353E+10
(PID.TID 0000.0001) %MON AngleCS_max                  =   1.0000000000000E+00
(PID.TID 0000.0001) %MON AngleCS_min                  =   1.0000000000000E+00
(PID.TID 0000.0001) %MON AngleCS_mean                 =   1.0000000000000E+00
(PID.TID 0000.0001) %MON AngleCS_sd                   =   0.0000000000000E+00
(PID.TID 0000.0001) %MON AngleSN_max                  =   0.0000000000000E+00
(PID.TID 0000.0001) %MON AngleSN_min                  =   0.0000000000000E+00
(PID.TID 0000.0001) %MON AngleSN_mean                 =   0.0000000000000E+00
(PID.TID 0000.0001) %MON AngleSN_sd                   =   0.0000000000000E+00
(PID.TID 0000.0001)  MDS_READ_FIELD: opening global file: bathymetry.bin
(PID.TID 0000.0001) // =======================================================
(PID.TID 0000.0001) // Field Model R_low (ini_masks_etc) at iteration          1
(PID.TID 0000.0001) // CMIN =         -5.200000000000000E+03
(PID.TID 0000.0001) // CMAX =         -1.200000000000000E+02
(PID.TID 0000.0001) // CINT =          1.881481481481482E+02
(PID.TID 0000.0001) // SYMBOLS (CMIN->CMAX): -abcdefghijklmnopqrstuvwxyz+
(PID.TID 0000.0001) //                  0.0: .
(PID.TID 0000.0001) // RANGE I (Lo:Hi:Step):(  -1:  92:   1)
(PID.TID 0000.0001) // RANGE J (Lo:Hi:Step):(  42:  -1:  -1)
(PID.TID 0000.0001) // RANGE K (Lo:Hi:Step):(   1:   1:   1)
(PID.TID 0000.0001) // =======================================================
(PID.TID 0000.0001) K =   1
(PID.TID 0000.0001) //                I=8       I=18      I=28      I=38      I=44      I=54      I=64      I=74      I=84
(PID.TID 0000.0001) // |--J--|101234567|901234567|901234567|901234567|901234567|567890123|567890123|567890123|567890123|56789012
(PID.TID 0000.0001) //     42 ............................................zyxxmyxxmgfeeefefgimnpwwwy..+zyy.....yyyyoiiihhz+.....
(PID.TID 0000.0001) //     41 ..................................................................................................
(PID.TID 0000.0001) //     40 qlloqz+.++++zzz++++++......................................................................+++qllo
(PID.TID 0000.0001) //     39 slloorzzzzzzzzz+...++.........................................................yxxz........+zvusllo
(PID.TID 0000.0001) //     38 mqpporzzzzzz+++...............................................................zxxy+......zyyvsmqpp
(PID.TID 0000.0001) //     37 mmmuz......................................................................++...zy+...yttyy.+smmmu
(PID.TID 0000.0001) //     36 utt+.........................................mm++mm++....................+++++++znmm.yoowssvuyutt+
(PID.TID 0000.0001) //     35 ++++.................................+zzz..rrmmkkmmkk+...+gghn...........+++....+nmiijlsoopuww++++
(PID.TID 0000.0001) //     34 .....................................+vvy.ggqyxv+yxv+y.ccdffhim..................+nihhikkihhm+....
(PID.TID 0000.0001) //     33 +.....................................uuz---h----------aaabdefin+.................zqvddflifffw+...
(PID.TID 0000.0001) //     32 +.....................................+t----h-------------acdfgnn................+++gdffkofffm+...
(PID.TID 0000.0001) //     31 ......................................-----ad------------abddegil..............qbaafccdhqqgddm....
(PID.TID 0000.0001) //     30 .....................................f----b--b---b------------abd............zfbb--fbcdosjfddi....
(PID.TID 0000.0001) //     29 ...................................tu----e---fjg-fjg----------abdf...........eaac--abfmijaadgi....
(PID.TID 0000.0001) //     28 .................................+xfl-----------------------bdedefi.........qbaa---aemfbbaaejz....
(PID.TID 0000.0001) //     27 ................xx..............+wfgfpf--------ea--eallc---bbbccefgi...+++x.qb-----akfa---ah......
(PID.TID 0000.0001) //     26 ................xnn...........+vd---dna------a--aa--aicfna---aabdfghku.++xssuy-----bgca---ci......
(PID.TID 0000.0001) //     25 ................iiik...oo+...+ivd---doaa-bc--ilglilglf--aa---aabcghhkll...ssum+xaaacjbaabdjk......
(PID.TID 0000.0001) //     24 ..............xnheeft.kkk+...uii.aagdm----aa---------a-------bbbcdefjljjju.zummwwbbchba--abi......
(PID.TID 0000.0001) //     23 ..............xgheefp.iikw...uuw..fihi----fed---------eaaa--bbbbcdfflkjiiiq....zykccefa--abd......
(PID.TID 0000.0001) //     22 uss...........bbelffslffkk...zz.wqkeeqoheccdfa---a-----egabaabcdddegghliiiqq......xeeehheehccquss.
(PID.TID 0000.0001) //     21 bbeir........nbbcdjhqdddiiz.....wqfeelgghmedea---a-----bibbcddddddefghklnqoo........ieeflhgcccbbei
(PID.TID 0000.0001) //     20 bbder.......ldcccdgkccccidd......z.vkkktqqhegg---g----aaacddddddddefghkiiijl.........nhfa--gfcbbde
(PID.TID 0000.0001) //     19 cdaaf.......kddosggpaaaibbccx...+z+.....r+nlec---c---agaaabcddccddefikfgffff...........d---cjhcdaa
(PID.TID 0000.0001) //     22 uss...........bbelffslffkk...zz.wqkeeqoheccdfa---a-----egabaabcdddegghliiiqq......xeeehheehccquss.
(PID.TID 0000.0001) //     21 bbeir........nbbcdjhqdddiiz.....wqfeelgghmedea---a-----bibbcddddddefghklnqoo........ieeflhgcccbbei
(PID.TID 0000.0001) //     20 bbder.......ldcccdgkccccidd......z.vkkktqqhegg---g----aaacddddddddefghkiiijl.........nhfa--gfcbbde
(PID.TID 0000.0001) //     19 cdaaf.......kddosggpaaaibbccx...+z+.....r+nlec---c---agaaabcddccddefikfgffff...........d---cjhcdaa
(PID.TID 0000.0001) //     18 d---d.......kglggvliaaaibbcaaeaiv++...qqzolhecccfcccfdgkaabcdfccdeeikgfgffdd+..........d---djhd---
(PID.TID 0000.0001) //     17 c---c.......l.feewlfaaaoaa----aiv.....qqnllslmlofmlofcdbaacceffffhhligfigeddj.........hd---ckhc---
(PID.TID 0000.0001) //     16 ba--c......tn.ddgnlfdaaqa-----lv.......vnllvllnwvlnwv--accivomfffhilhgfffeddjf........re--aeigba--
(PID.TID 0000.0001) //     15 b--dpz....+ll.ccdfhmdddlc----av.........otsxoomv-omv---abccddfihgijkhgfffeejfff......+fd---ckfb--d
(PID.TID 0000.0001) //     14 c--mcl....weeqbaafilkfend--eagy.........hhstofft-fft----aacdheefijkmjhhjijiffff.....zlfdaaadlfc--m
(PID.TID 0000.0001) //     13 cclbbg....nccobaaiddgkffqrqeaal.........eeutqfft-fft------aaceeffhijlkjhhigfffq....+jgfodccflhcclb
(PID.TID 0000.0001) //     12 hgaaacw+iiicclemhdddfliigfdcaabfaaaz....ccsurqpc-qpc--------abcifffikiiihhggff.....kbbbdfffglhhgaa
(PID.TID 0000.0001) //     11 gcaaacbbifccennhbbdefnihgfdccaaaa----..dcccnt.nca.ncab-------aabcdfilhggjiggff....l---abcefjlkgcaa
(PID.TID 0000.0001) //     10 fcaaccbdaacfrllfbbdegkmmljhfdddba----d.dcccfx.nyr.nyrebaba----abcdgilhfeegijgi..+w--aa-abcfilkfcaa
(PID.TID 0000.0001) //      9 ffcdcccaaaoqsolfdeehikihhlllgfedcccccdmdcccf.vyfavyfaaaaaaaa--abdehmjhfeeefglv.++w-----abcdfklffcd
(PID.TID 0000.0001) //      8 iffjklcaafddffeeccvznkfffhhhlkjifgjkkfeeddfsyvcaavcaaaaaaccdcccdfgjligedbbceg+.++xffn--cfddefliffj
(PID.TID 0000.0001) //      7 mqnnbbkkf--bmbaabbgtykfddeffeeddccdfhlffeelfbaaaaaaaaaacddeghgjgjlligeddaaabedfiiiiiisvkfkecchmqnn
(PID.TID 0000.0001) //      6 ca-------------aabcelttdddedddddccccdfkkiiffbaaaaaaaabcdgimmkmefecaaabbbaaabbdfiiiiispmmregifcca--
(PID.TID 0000.0001) //      5 -------a-------aaccehhhiddeddddddcccdfiikomodddefddefffmlmigedccaaaaaaaababbbdfiijsqgeccccbaa-----
(PID.TID 0000.0001) //      4 -ahebaabbbbbeihffgijiiiijpywnnpokkomkiiijmmmolkomlkommmgffeeedccaaaaaabbcccefhmz..yjgeccccbaa--ahe
(PID.TID 0000.0001) //      3 ffhhrpjiiwyy............................yxotmjjjjjjjjgfeeeeeeddeffffheddeghjkyy..yqjgeddccdbbgffhh
(PID.TID 0000.0001) //      2 ............................................zyxxmyxxmgfeeefefgimnpwwwy..+zyy.....yyyyoiiihhz+.....
(PID.TID 0000.0001) //      1 ..................................................................................................
(PID.TID 0000.0001) //      0 qlloqz+.++++zzz++++++......................................................................+++qllo
(PID.TID 0000.0001) //     -1 slloorzzzzzzzzz+...++.........................................................yxxz........+zvusllo
(PID.TID 0000.0001) // =======================================================
(PID.TID 0000.0001) // END OF FIELD                                          =
(PID.TID 0000.0001) // =======================================================
(PID.TID 0000.0001) 
(PID.TID 0000.0001) // =======================================================
(PID.TID 0000.0001) // Field Model Ro_surf (ini_masks_etc) at iteration          1
(PID.TID 0000.0001) // CMIN =          1.000000000000000E+32
(PID.TID 0000.0001) // CMAX =         -1.000000000000000E+32
(PID.TID 0000.0001) // CINT =          0.000000000000000E+00
(PID.TID 0000.0001) // SYMBOLS (CMIN->CMAX): -abcdefghijklmnopqrstuvwxyz+
(PID.TID 0000.0001) //                  0.0: .
(PID.TID 0000.0001) // RANGE I (Lo:Hi:Step):(  -1:  92:   1)
(PID.TID 0000.0001) // RANGE J (Lo:Hi:Step):(  42:  -1:  -1)
(PID.TID 0000.0001) // RANGE K (Lo:Hi:Step):(   1:   1:   1)
(PID.TID 0000.0001) // =======================================================
(PID.TID 0000.0001) // =======================================================
(PID.TID 0000.0001) // END OF FIELD                                          =
(PID.TID 0000.0001) // =======================================================
(PID.TID 0000.0001) 
(PID.TID 0000.0001) // =======================================================
(PID.TID 0000.0001) // Field hFacC at iteration          1
(PID.TID 0000.0001) // CMIN =          1.000000000000000E+00
(PID.TID 0000.0001) // CMAX =          1.000000000000000E+00
(PID.TID 0000.0001) // CINT =          0.000000000000000E+00
(PID.TID 0000.0001) // SYMBOLS (CMIN->CMAX): -abcdefghijklmnopqrstuvwxyz+
(PID.TID 0000.0001) //                  0.0: .
(PID.TID 0000.0001) // RANGE I (Lo:Hi:Step):(  -1:  92:   1)
(PID.TID 0000.0001) // RANGE J (Lo:Hi:Step):(  42:  -1:  -1)
(PID.TID 0000.0001) // RANGE K (Lo:Hi:Step):(   1:   1:   1)
(PID.TID 0000.0001) // =======================================================
(PID.TID 0000.0001) // =======================================================
(PID.TID 0000.0001) // END OF FIELD                                          =
(PID.TID 0000.0001) // =======================================================
(PID.TID 0000.0001) 
(PID.TID 0000.0001) // =======================================================
(PID.TID 0000.0001) // Field hFacW at iteration          1
(PID.TID 0000.0001) // CMIN =          1.000000000000000E+00
(PID.TID 0000.0001) // CMAX =          1.000000000000000E+00
(PID.TID 0000.0001) // CINT =          0.000000000000000E+00
(PID.TID 0000.0001) // SYMBOLS (CMIN->CMAX): -abcdefghijklmnopqrstuvwxyz+
(PID.TID 0000.0001) //                  0.0: .
(PID.TID 0000.0001) // RANGE I (Lo:Hi:Step):(  -1:  92:   1)
(PID.TID 0000.0001) // RANGE J (Lo:Hi:Step):(  42:  -1:  -1)
(PID.TID 0000.0001) // RANGE K (Lo:Hi:Step):(   1:   1:   1)
(PID.TID 0000.0001) // =======================================================
(PID.TID 0000.0001) // =======================================================
(PID.TID 0000.0001) // END OF FIELD                                          =
(PID.TID 0000.0001) // =======================================================
(PID.TID 0000.0001) 
(PID.TID 0000.0001) // =======================================================
(PID.TID 0000.0001) // Field hFacS at iteration          1
(PID.TID 0000.0001) // CMIN =          1.000000000000000E+00
(PID.TID 0000.0001) // CMAX =          1.000000000000000E+00
(PID.TID 0000.0001) // CINT =          0.000000000000000E+00
(PID.TID 0000.0001) // SYMBOLS (CMIN->CMAX): -abcdefghijklmnopqrstuvwxyz+
(PID.TID 0000.0001) //                  0.0: .
(PID.TID 0000.0001) // RANGE I (Lo:Hi:Step):(  -1:  92:   1)
(PID.TID 0000.0001) // RANGE J (Lo:Hi:Step):(  42:  -1:  -1)
(PID.TID 0000.0001) // RANGE K (Lo:Hi:Step):(   1:   1:   1)
(PID.TID 0000.0001) // =======================================================
(PID.TID 0000.0001) // =======================================================
(PID.TID 0000.0001) // END OF FIELD                                          =
(PID.TID 0000.0001) // =======================================================
(PID.TID 0000.0001) 
(PID.TID 0000.0001) 
(PID.TID 0000.0001) // ===================================
(PID.TID 0000.0001) // GAD parameters :
(PID.TID 0000.0001) // ===================================
(PID.TID 0000.0001) tempAdvScheme =   /* Temp. Horiz.Advection scheme selector */
(PID.TID 0000.0001)                       2
(PID.TID 0000.0001)     ;
(PID.TID 0000.0001) tempVertAdvScheme =   /* Temp. Vert. Advection scheme selector */
(PID.TID 0000.0001)                       2
(PID.TID 0000.0001)     ;
(PID.TID 0000.0001) tempMultiDimAdvec =   /* use Muti-Dim Advec method for Temp */
(PID.TID 0000.0001)                   F
(PID.TID 0000.0001)     ;
(PID.TID 0000.0001) tempSOM_Advection = /* use 2nd Order Moment Advection for Temp */
(PID.TID 0000.0001)                   F
(PID.TID 0000.0001)     ;
(PID.TID 0000.0001) AdamsBashforthGt = /* apply Adams-Bashforth extrapolation on Gt */
(PID.TID 0000.0001)                   T
(PID.TID 0000.0001)     ;
(PID.TID 0000.0001) AdamsBashforth_T = /* apply Adams-Bashforth extrapolation on Temp */
(PID.TID 0000.0001)                   F
(PID.TID 0000.0001)     ;
(PID.TID 0000.0001) saltAdvScheme =   /* Salt. Horiz.advection scheme selector */
(PID.TID 0000.0001)                       2
(PID.TID 0000.0001)     ;
(PID.TID 0000.0001) saltVertAdvScheme =   /* Salt. Vert. Advection scheme selector */
(PID.TID 0000.0001)                       2
(PID.TID 0000.0001)     ;
(PID.TID 0000.0001) saltMultiDimAdvec =   /* use Muti-Dim Advec method for Salt */
(PID.TID 0000.0001)                   F
(PID.TID 0000.0001)     ;
(PID.TID 0000.0001) saltSOM_Advection = /* use 2nd Order Moment Advection for Salt */
(PID.TID 0000.0001)                   F
(PID.TID 0000.0001)     ;
(PID.TID 0000.0001) AdamsBashforthGs = /* apply Adams-Bashforth extrapolation on Gs */
(PID.TID 0000.0001)                   T
(PID.TID 0000.0001)     ;
(PID.TID 0000.0001) AdamsBashforth_S = /* apply Adams-Bashforth extrapolation on Salt */
(PID.TID 0000.0001)                   F
(PID.TID 0000.0001)     ;
(PID.TID 0000.0001) // ===================================
(PID.TID 0000.0001) ctrl-wet 1:    nvarlength =         2315
(PID.TID 0000.0001) ctrl-wet 2: surface wet C =          669
(PID.TID 0000.0001) ctrl-wet 3: surface wet W =          640
(PID.TID 0000.0001) ctrl-wet 4: surface wet S =          610
(PID.TID 0000.0001) ctrl-wet 4a:surface wet V =            0
(PID.TID 0000.0001) ctrl-wet 5: 3D wet points =         8651
(PID.TID 0000.0001) ctrl-wet 6: no recs for i =     1           0
(PID.TID 0000.0001) ctrl-wet 6: no recs for i =     2           0
(PID.TID 0000.0001) ctrl-wet 6: no recs for i =     3           0
(PID.TID 0000.0001) ctrl-wet 6: no recs for i =     4           0
(PID.TID 0000.0001) ctrl-wet 6: no recs for i =     5           0
(PID.TID 0000.0001) ctrl-wet 6: no recs for i =     6           0
(PID.TID 0000.0001) ctrl-wet 6: no recs for i =     7           0
(PID.TID 0000.0001) ctrl-wet 6: no recs for i =     8           0
(PID.TID 0000.0001) ctrl-wet 6: no recs for i =     9           0
(PID.TID 0000.0001) ctrl-wet 6: no recs for i =    10           0
(PID.TID 0000.0001) ctrl-wet 6: no recs for i =    11           0
(PID.TID 0000.0001) ctrl-wet 6: no recs for i =    12           0
(PID.TID 0000.0001) ctrl-wet 6: no recs for i =    13           0
(PID.TID 0000.0001) ctrl-wet 6: no recs for i =    14           0
(PID.TID 0000.0001) ctrl-wet 6: no recs for i =    15           0
(PID.TID 0000.0001) ctrl-wet 6: no recs for i =    16           0
(PID.TID 0000.0001) ctrl-wet 6: no recs for i =    17           0
(PID.TID 0000.0001) ctrl-wet 6: no recs for i =    18           0
(PID.TID 0000.0001) ctrl-wet 6: no recs for i =    19           0
(PID.TID 0000.0001) ctrl-wet 6: no recs for i =    20           0
(PID.TID 0000.0001) ctrl-wet 6: no recs for i =    21           0
(PID.TID 0000.0001) ctrl-wet 6: no recs for i =    22           0
(PID.TID 0000.0001) ctrl-wet 6: no recs for i =    23           0
(PID.TID 0000.0001) ctrl-wet 6: no recs for i =    24           1
(PID.TID 0000.0001) ctrl-wet 6: no recs for i =    25           0
(PID.TID 0000.0001) ctrl-wet 6: no recs for i =    26           0
(PID.TID 0000.0001) ctrl-wet 6: no recs for i =    27           0
(PID.TID 0000.0001) ctrl-wet 6: no recs for i =    28           0
(PID.TID 0000.0001) ctrl-wet 6: no recs for i =    29           0
(PID.TID 0000.0001) ctrl-wet 6: no recs for i =    30           0
(PID.TID 0000.0001) ctrl-wet 6: no recs for i =    31           0
(PID.TID 0000.0001) ctrl-wet 6: no recs for i =    32           0
(PID.TID 0000.0001) ctrl-wet 6: no recs for i =    33           0
(PID.TID 0000.0001) ctrl-wet 6: no recs for i =    34           0
(PID.TID 0000.0001) ctrl-wet 6: no recs for i =    35           0
(PID.TID 0000.0001) ctrl-wet 6: no recs for i =    36           0
(PID.TID 0000.0001) ctrl-wet 6: no recs for i =    37           0
(PID.TID 0000.0001) ctrl-wet 6: no recs for i =    38           0
(PID.TID 0000.0001) ctrl-wet 6: no recs for i =    39           0
(PID.TID 0000.0001) ctrl-wet 6: no recs for i =    40           0
(PID.TID 0000.0001) ctrl-wet 6: no recs for i =    41           0
(PID.TID 0000.0001) ctrl-wet 6: no recs for i =    42           0
(PID.TID 0000.0001) ctrl-wet 6: no recs for i =    43           0
(PID.TID 0000.0001) ctrl-wet 6: no recs for i =    44           0
(PID.TID 0000.0001) ctrl-wet 6: no recs for i =    45           0
(PID.TID 0000.0001) ctrl-wet 6: no recs for i =    46           0
(PID.TID 0000.0001) ctrl-wet 6: no recs for i =    47           0
(PID.TID 0000.0001) ctrl-wet 6: no recs for i =    48           0
(PID.TID 0000.0001) ctrl-wet 6: no recs for i =    49           0
(PID.TID 0000.0001) ctrl-wet 6: no recs for i =    50           0
(PID.TID 0000.0001) ctrl-wet 6: no recs for i =    51           0
(PID.TID 0000.0001) ctrl-wet 6: no recs for i =    52           0
(PID.TID 0000.0001) ctrl-wet 6: no recs for i =    53           0
(PID.TID 0000.0001) ctrl-wet 6: no recs for i =    54           0
(PID.TID 0000.0001) ctrl-wet 6: no recs for i =    55           0
(PID.TID 0000.0001) ctrl-wet 6: no recs for i =    56           0
(PID.TID 0000.0001) ctrl-wet 6: no recs for i =    57           0
(PID.TID 0000.0001) ctrl-wet 6: no recs for i =    58           0
(PID.TID 0000.0001) ctrl-wet 6: no recs for i =    59           0
(PID.TID 0000.0001) ctrl-wet 6: no recs for i =    60           0
(PID.TID 0000.0001) ctrl-wet 7: flux         17302
(PID.TID 0000.0001) ctrl-wet 8: atmos        17302
(PID.TID 0000.0001) ctrl-wet -------------------------------------------------
(PID.TID 0000.0001) ctrl-wet 13: global nvarlength for Nr =   15        2315
(PID.TID 0000.0001) ctrl-wet -------------------------------------------------
(PID.TID 0000.0001) ctrl-wet 14: global nWet C/S/W/V k=    1        2315        2149        2206           0
(PID.TID 0000.0001) ctrl-wet 14: global nWet C/S/W/V k=    2        2315        2149        2206           0
(PID.TID 0000.0001) ctrl-wet 14: global nWet C/S/W/V k=    3        2254        2102        2146           0
(PID.TID 0000.0001) ctrl-wet 14: global nWet C/S/W/V k=    4        2215        2058        2104           0
(PID.TID 0000.0001) ctrl-wet 14: global nWet C/S/W/V k=    5        2178        2027        2070           0
(PID.TID 0000.0001) ctrl-wet 14: global nWet C/S/W/V k=    6        2142        1987        2029           0
(PID.TID 0000.0001) ctrl-wet 14: global nWet C/S/W/V k=    7        2114        1959        2004           0
(PID.TID 0000.0001) ctrl-wet 14: global nWet C/S/W/V k=    8        2076        1918        1959           0
(PID.TID 0000.0001) ctrl-wet 14: global nWet C/S/W/V k=    9        2048        1887        1925           0
(PID.TID 0000.0001) ctrl-wet 14: global nWet C/S/W/V k=   10        1999        1831        1869           0
(PID.TID 0000.0001) ctrl-wet 14: global nWet C/S/W/V k=   11        1948        1771        1808           0
(PID.TID 0000.0001) ctrl-wet 14: global nWet C/S/W/V k=   12        1850        1653        1705           0
(PID.TID 0000.0001) ctrl-wet 14: global nWet C/S/W/V k=   13        1655        1404        1458           0
(PID.TID 0000.0001) ctrl-wet 14: global nWet C/S/W/V k=   14        1372        1118        1164           0
(PID.TID 0000.0001) ctrl-wet 14: global nWet C/S/W/V k=   15         828         623         671           0
(PID.TID 0000.0001) ctrl-wet -------------------------------------------------
(PID.TID 0000.0001) ctrl-wet -------------------------------------------------
(PID.TID 0000.0001) ctrl-wet -------------------------------------------------
(PID.TID 0000.0001) ctrl_init: no. of control variables:            1
(PID.TID 0000.0001) ctrl_init: control vector length:            2315
(PID.TID 0000.0001) %MON fCori_max                    =   1.4265546244797E-04
(PID.TID 0000.0001) %MON fCori_min                    =  -1.4265546244797E-04
(PID.TID 0000.0001) %MON fCori_mean                   =   4.7801269115805E-19
(PID.TID 0000.0001) %MON fCori_sd                     =   9.6599226301546E-05
(PID.TID 0000.0001) %MON fCoriG_max                   =   1.4151032568025E-04
(PID.TID 0000.0001) %MON fCoriG_min                   =  -1.4362679550910E-04
(PID.TID 0000.0001) %MON fCoriG_mean                  =  -3.5906698877273E-06
(PID.TID 0000.0001) %MON fCoriG_sd                    =   9.6548915696246E-05
(PID.TID 0000.0001) %MON fCoriCos_max                 =   1.4575362704741E-04
(PID.TID 0000.0001) %MON fCoriCos_min                 =   3.0322354601388E-05
(PID.TID 0000.0001) %MON fCoriCos_mean                =   1.0288600773633E-04
(PID.TID 0000.0001) %MON fCoriCos_sd                  =   3.6784304327266E-05
(PID.TID 0000.0001) INI_CG2D: CG2D normalisation factor =  6.5682677425711703E-05
(PID.TID 0000.0001) 
(PID.TID 0000.0001) // =======================================================
(PID.TID 0000.0001) // Model configuration
(PID.TID 0000.0001) // =======================================================
(PID.TID 0000.0001) //
(PID.TID 0000.0001) // "Physical" paramters ( PARM01 in namelist )
(PID.TID 0000.0001) //
(PID.TID 0000.0001) buoyancyRelation = /* Type of relation to get Buoyancy */
(PID.TID 0000.0001)               'OCEANIC'
(PID.TID 0000.0001)     ;
(PID.TID 0000.0001) fluidIsAir  =  /* fluid major constituent is Air */
(PID.TID 0000.0001)                   F
(PID.TID 0000.0001)     ;
(PID.TID 0000.0001) fluidIsWater=  /* fluid major constituent is Water */
(PID.TID 0000.0001)                   T
(PID.TID 0000.0001)     ;
(PID.TID 0000.0001) usingPCoords =  /* use p (or p*) vertical coordinate */
(PID.TID 0000.0001)                   F
(PID.TID 0000.0001)     ;
(PID.TID 0000.0001) usingZCoords =  /* use z (or z*) vertical coordinate */
(PID.TID 0000.0001)                   T
(PID.TID 0000.0001)     ;
(PID.TID 0000.0001) tRef =   /* Reference temperature profile ( oC or K ) */
(PID.TID 0000.0001)    15 @  2.000000000000000E+01              /* K =  1: 15 */
(PID.TID 0000.0001)     ;
(PID.TID 0000.0001) sRef =   /* Reference salinity profile ( psu ) */
(PID.TID 0000.0001)    15 @  3.500000000000000E+01              /* K =  1: 15 */
(PID.TID 0000.0001)     ;
(PID.TID 0000.0001) viscAh =   /* Lateral eddy viscosity ( m^2/s ) */
(PID.TID 0000.0001)                 5.000000000000000E+05
(PID.TID 0000.0001)     ;
(PID.TID 0000.0001) viscAhMax =   /* Maximum lateral eddy viscosity ( m^2/s ) */
(PID.TID 0000.0001)                 1.000000000000000E+21
(PID.TID 0000.0001)     ;
(PID.TID 0000.0001) viscAhGrid =   /* Grid dependent lateral eddy viscosity ( non-dim. ) */
(PID.TID 0000.0001)                 0.000000000000000E+00
(PID.TID 0000.0001)     ;
(PID.TID 0000.0001) useFullLeith =   /* Use Full Form of Leith Viscosity on/off flag*/
(PID.TID 0000.0001)                   F
(PID.TID 0000.0001)     ;
(PID.TID 0000.0001) useStrainTensionVisc =   /* Use StrainTension Form of Viscous Operator on/off flag*/
(PID.TID 0000.0001)                   F
(PID.TID 0000.0001)     ;
(PID.TID 0000.0001) useAreaViscLength =   /* Use area for visc length instead of geom. mean*/
(PID.TID 0000.0001)                   F
(PID.TID 0000.0001)     ;
(PID.TID 0000.0001) viscC2leith = /* Leith harmonic visc. factor (on grad(vort),non-dim.) */
(PID.TID 0000.0001)                 0.000000000000000E+00
(PID.TID 0000.0001)     ;
(PID.TID 0000.0001) viscC2leithD = /* Leith harmonic viscosity factor (on grad(div),non-dim.) */
(PID.TID 0000.0001)                 0.000000000000000E+00
(PID.TID 0000.0001)     ;
(PID.TID 0000.0001) viscC2smag =   /* Smagorinsky harmonic viscosity factor (non-dim.) */
(PID.TID 0000.0001)                 0.000000000000000E+00
(PID.TID 0000.0001)     ;
(PID.TID 0000.0001) viscA4 =   /* Lateral biharmonic viscosity ( m^4/s ) */
(PID.TID 0000.0001)                 0.000000000000000E+00
(PID.TID 0000.0001)     ;
(PID.TID 0000.0001) viscA4Max =   /* Maximum biharmonic viscosity ( m^2/s ) */
(PID.TID 0000.0001)                 1.000000000000000E+21
(PID.TID 0000.0001)     ;
(PID.TID 0000.0001) viscA4Grid =   /* Grid dependent biharmonic viscosity ( non-dim. ) */
(PID.TID 0000.0001)                 0.000000000000000E+00
(PID.TID 0000.0001)     ;
(PID.TID 0000.0001) viscC4leith = /* Leith biharm viscosity factor (on grad(vort), non-dim.) */
(PID.TID 0000.0001)                 0.000000000000000E+00
(PID.TID 0000.0001)     ;
(PID.TID 0000.0001) viscC4leithD = /* Leith biharm viscosity factor (on grad(div), non-dim.) */
(PID.TID 0000.0001)                 0.000000000000000E+00
(PID.TID 0000.0001)     ;
(PID.TID 0000.0001) viscC4Smag = /* Smagorinsky biharm viscosity factor (non-dim) */
(PID.TID 0000.0001)                 0.000000000000000E+00
(PID.TID 0000.0001)     ;
(PID.TID 0000.0001) no_slip_sides =  /* Viscous BCs: No-slip sides */
(PID.TID 0000.0001)                   T
(PID.TID 0000.0001)     ;
(PID.TID 0000.0001) sideDragFactor = /* side-drag scaling factor (non-dim) */
(PID.TID 0000.0001)                 2.000000000000000E+00
(PID.TID 0000.0001)     ;
(PID.TID 0000.0001) viscArNr = /* vertical profile of vertical viscosity ( m^2/s )*/
(PID.TID 0000.0001)    15 @  1.000000000000000E-03              /* K =  1: 15 */
(PID.TID 0000.0001)     ;
(PID.TID 0000.0001) no_slip_bottom =  /* Viscous BCs: No-slip bottom */
(PID.TID 0000.0001)                   T
(PID.TID 0000.0001)     ;
(PID.TID 0000.0001) bottomDragLinear = /* linear bottom-drag coefficient ( m/s ) */
(PID.TID 0000.0001)                 0.000000000000000E+00
(PID.TID 0000.0001)     ;
(PID.TID 0000.0001) bottomDragQuadratic = /* quadratic bottom-drag coefficient (-) */
(PID.TID 0000.0001)                 0.000000000000000E+00
(PID.TID 0000.0001)     ;
(PID.TID 0000.0001) diffKhT =   /* Laplacian diffusion of heat laterally ( m^2/s ) */
(PID.TID 0000.0001)                 0.000000000000000E+00
(PID.TID 0000.0001)     ;
(PID.TID 0000.0001) diffK4T =   /* Biharmonic diffusion of heat laterally ( m^4/s ) */
(PID.TID 0000.0001)                 0.000000000000000E+00
(PID.TID 0000.0001)     ;
(PID.TID 0000.0001) diffKhS =   /* Laplacian diffusion of salt laterally ( m^2/s ) */
(PID.TID 0000.0001)                 0.000000000000000E+00
(PID.TID 0000.0001)     ;
(PID.TID 0000.0001) diffK4S =   /* Biharmonic diffusion of salt laterally ( m^4/s ) */
(PID.TID 0000.0001)                 0.000000000000000E+00
(PID.TID 0000.0001)     ;
(PID.TID 0000.0001) diffKrNrT = /* vertical profile of vertical diffusion of Temp ( m^2/s )*/
(PID.TID 0000.0001)    15 @  3.000000000000000E-05              /* K =  1: 15 */
(PID.TID 0000.0001)     ;
(PID.TID 0000.0001) diffKrNrS = /* vertical profile of vertical diffusion of Salt ( m^2/s )*/
(PID.TID 0000.0001)    15 @  3.000000000000000E-05              /* K =  1: 15 */
(PID.TID 0000.0001)     ;
(PID.TID 0000.0001) diffKrBL79surf = /* Surface diffusion for Bryan and Lewis 79 ( m^2/s ) */
(PID.TID 0000.0001)                 0.000000000000000E+00
(PID.TID 0000.0001)     ;
(PID.TID 0000.0001) diffKrBL79deep = /* Deep diffusion for Bryan and Lewis 1979 ( m^2/s ) */
(PID.TID 0000.0001)                 0.000000000000000E+00
(PID.TID 0000.0001)     ;
(PID.TID 0000.0001) diffKrBL79scl = /* Depth scale for Bryan and Lewis 1979 ( m ) */
(PID.TID 0000.0001)                 2.000000000000000E+02
(PID.TID 0000.0001)     ;
(PID.TID 0000.0001) diffKrBL79Ho = /* Turning depth for Bryan and Lewis 1979 ( m ) */
(PID.TID 0000.0001)                -2.000000000000000E+03
(PID.TID 0000.0001)     ;
(PID.TID 0000.0001) ivdc_kappa = /* Implicit Vertical Diffusivity for Convection ( m^2/s ) */
(PID.TID 0000.0001)                 1.000000000000000E+02
(PID.TID 0000.0001)     ;
(PID.TID 0000.0001) hMixCriteria=  /* Criteria for mixed-layer diagnostic */
(PID.TID 0000.0001)                -8.000000000000000E-01
(PID.TID 0000.0001)     ;
(PID.TID 0000.0001) dRhoSmall=  /* Parameter for mixed-layer diagnostic */
(PID.TID 0000.0001)                 1.000000000000000E-06
(PID.TID 0000.0001)     ;
(PID.TID 0000.0001) hMixSmooth=  /* Smoothing parameter for mixed-layer diagnostic */
(PID.TID 0000.0001)                 0.000000000000000E+00
(PID.TID 0000.0001)     ;
(PID.TID 0000.0001) eosType =  /* Type of Equation of State */
(PID.TID 0000.0001)               'JMD95Z'
(PID.TID 0000.0001)     ;
(PID.TID 0000.0001) tAlpha =   /* Linear EOS thermal expansion coefficient ( 1/oC ) */
(PID.TID 0000.0001)                 1.234567000000000E+05
(PID.TID 0000.0001)     ;
(PID.TID 0000.0001) sBeta =   /* Linear EOS haline contraction coefficient ( 1/psu ) */
(PID.TID 0000.0001)                 1.234567000000000E+05
(PID.TID 0000.0001)     ;
(PID.TID 0000.0001) rhonil =   /* Reference density ( kg/m^3 ) */
(PID.TID 0000.0001)                 1.035000000000000E+03
(PID.TID 0000.0001)     ;
(PID.TID 0000.0001) rhoConst =   /* Reference density ( kg/m^3 ) */
(PID.TID 0000.0001)                 1.035000000000000E+03
(PID.TID 0000.0001)     ;
(PID.TID 0000.0001) rhoFacC = /* normalized Reference density @ cell-Center (-) */
(PID.TID 0000.0001)    15 @  1.000000000000000E+00              /* K =  1: 15 */
(PID.TID 0000.0001)     ;
(PID.TID 0000.0001) rhoFacF = /* normalized Reference density @ W-Interface (-) */
(PID.TID 0000.0001)    16 @  1.000000000000000E+00              /* K =  1: 16 */
(PID.TID 0000.0001)     ;
(PID.TID 0000.0001) rhoConstFresh =   /* Reference density ( kg/m^3 ) */
(PID.TID 0000.0001)                 1.000000000000000E+03
(PID.TID 0000.0001)     ;
(PID.TID 0000.0001) gravity =   /* Gravitational acceleration ( m/s^2 ) */
(PID.TID 0000.0001)                 9.810000000000000E+00
(PID.TID 0000.0001)     ;
(PID.TID 0000.0001) gBaro =   /* Barotropic gravity ( m/s^2 ) */
(PID.TID 0000.0001)                 9.810000000000000E+00
(PID.TID 0000.0001)     ;
(PID.TID 0000.0001) rotationPeriod =   /* Rotation Period ( s ) */
(PID.TID 0000.0001)                 8.616400000000000E+04
(PID.TID 0000.0001)     ;
(PID.TID 0000.0001) omega =   /* Angular velocity ( rad/s ) */
(PID.TID 0000.0001)                 7.292123516990375E-05
(PID.TID 0000.0001)     ;
(PID.TID 0000.0001) f0 =   /* Reference coriolis parameter ( 1/s ) */
(PID.TID 0000.0001)                 1.000000000000000E-04
(PID.TID 0000.0001)     ;
(PID.TID 0000.0001) beta =   /* Beta ( 1/(m.s) ) */
(PID.TID 0000.0001)                 9.999999999999999E-12
(PID.TID 0000.0001)     ;
(PID.TID 0000.0001) freeSurfFac =   /* Implicit free surface factor */
(PID.TID 0000.0001)                 1.000000000000000E+00
(PID.TID 0000.0001)     ;
(PID.TID 0000.0001) implicitFreeSurface =   /* Implicit free surface on/off flag */
(PID.TID 0000.0001)                   T
(PID.TID 0000.0001)     ;
(PID.TID 0000.0001) rigidLid =   /* Rigid lid on/off flag */
(PID.TID 0000.0001)                   F
(PID.TID 0000.0001)     ;
(PID.TID 0000.0001) implicSurfPress =   /* Surface Pressure implicit factor (0-1)*/
(PID.TID 0000.0001)                 1.000000000000000E+00
(PID.TID 0000.0001)     ;
(PID.TID 0000.0001) implicDiv2Dflow =   /* Barot. Flow Div. implicit factor (0-1)*/
(PID.TID 0000.0001)                 1.000000000000000E+00
(PID.TID 0000.0001)     ;
(PID.TID 0000.0001) exactConserv =   /* Exact Volume Conservation on/off flag*/
(PID.TID 0000.0001)                   T
(PID.TID 0000.0001)     ;
(PID.TID 0000.0001) linFSConserveTr =   /* Tracer correction for Lin Free Surface on/off flag*/
(PID.TID 0000.0001)                   F
(PID.TID 0000.0001)     ;
(PID.TID 0000.0001) uniformLin_PhiSurf =   /* use uniform Bo_surf on/off flag*/
(PID.TID 0000.0001)                   T
(PID.TID 0000.0001)     ;
(PID.TID 0000.0001) nonlinFreeSurf =   /* Non-linear Free Surf. options (-1,0,1,2,3)*/
(PID.TID 0000.0001)                       0
(PID.TID 0000.0001)     ;
(PID.TID 0000.0001)      -1,0= Off ; 1,2,3= On, 2=+rescale gU,gV, 3=+update cg2d solv.
(PID.TID 0000.0001) hFacInf =   /* lower threshold for hFac (nonlinFreeSurf only)*/
(PID.TID 0000.0001)                 2.000000000000000E-01
(PID.TID 0000.0001)     ;
(PID.TID 0000.0001) hFacSup =   /* upper threshold for hFac (nonlinFreeSurf only)*/
(PID.TID 0000.0001)                 2.000000000000000E+00
(PID.TID 0000.0001)     ;
(PID.TID 0000.0001) select_rStar = /* r* Vertical coord. options (=0 r coord.; > 0 uses r*) */
(PID.TID 0000.0001)                       0
(PID.TID 0000.0001)     ;
(PID.TID 0000.0001) selectAddFluid = /* option for mass source/sink of fluid (=0: off) */
(PID.TID 0000.0001)                       0
(PID.TID 0000.0001)     ;
(PID.TID 0000.0001) useRealFreshWaterFlux = /* Real Fresh Water Flux on/off flag*/
(PID.TID 0000.0001)                   T
(PID.TID 0000.0001)     ;
(PID.TID 0000.0001) temp_EvPrRn = /* Temp. of Evap/Prec/R (UNSET=use local T)(oC)*/
(PID.TID 0000.0001)                 1.234567000000000E+05
(PID.TID 0000.0001)     ;
(PID.TID 0000.0001) salt_EvPrRn = /* Salin. of Evap/Prec/R (UNSET=use local S)(ppt)*/
(PID.TID 0000.0001)                 0.000000000000000E+00
(PID.TID 0000.0001)     ;
(PID.TID 0000.0001) convertFW2Salt = /* convert F.W. Flux to Salt Flux (-1=use local S)(ppt)*/
(PID.TID 0000.0001)                -1.000000000000000E+00
(PID.TID 0000.0001)     ;
(PID.TID 0000.0001) use3Dsolver = /* use 3-D pressure solver on/off flag */
(PID.TID 0000.0001)                   F
(PID.TID 0000.0001)     ;
(PID.TID 0000.0001) nonHydrostatic =  /* Non-Hydrostatic on/off flag */
(PID.TID 0000.0001)                   F
(PID.TID 0000.0001)     ;
(PID.TID 0000.0001) nh_Am2 = /* Non-Hydrostatic terms scaling factor */
(PID.TID 0000.0001)                 1.000000000000000E+00
(PID.TID 0000.0001)     ;
(PID.TID 0000.0001) quasiHydrostatic = /* Quasi-Hydrostatic on/off flag */
(PID.TID 0000.0001)                   F
(PID.TID 0000.0001)     ;
(PID.TID 0000.0001) momStepping =  /* Momentum equation on/off flag */
(PID.TID 0000.0001)                   T
(PID.TID 0000.0001)     ;
(PID.TID 0000.0001) vectorInvariantMomentum= /* Vector-Invariant Momentum on/off */
(PID.TID 0000.0001)                   F
(PID.TID 0000.0001)     ;
(PID.TID 0000.0001) momAdvection =  /* Momentum advection on/off flag */
(PID.TID 0000.0001)                   T
(PID.TID 0000.0001)     ;
(PID.TID 0000.0001) momViscosity =  /* Momentum viscosity on/off flag */
(PID.TID 0000.0001)                   T
(PID.TID 0000.0001)     ;
(PID.TID 0000.0001) momImplVertAdv =/* Momentum implicit vert. advection on/off*/
(PID.TID 0000.0001)                   F
(PID.TID 0000.0001)     ;
(PID.TID 0000.0001) implicitViscosity = /* Implicit viscosity on/off flag */
(PID.TID 0000.0001)                   F
(PID.TID 0000.0001)     ;
(PID.TID 0000.0001) metricTerms =  /* metric-Terms on/off flag */
(PID.TID 0000.0001)                   T
(PID.TID 0000.0001)     ;
(PID.TID 0000.0001) useNHMTerms = /* Non-Hydrostatic Metric-Terms on/off */
(PID.TID 0000.0001)                   F
(PID.TID 0000.0001)     ;
(PID.TID 0000.0001) useConstantF =  /* use Constant f0 Coriolis flag */
(PID.TID 0000.0001)                   F
(PID.TID 0000.0001)     ;
(PID.TID 0000.0001) useBetaPlaneF = /* use Beta-Plane Coriolis flag */
(PID.TID 0000.0001)                   F
(PID.TID 0000.0001)     ;
(PID.TID 0000.0001) useSphereF  =   /* use Spherical Coriolis flag */
(PID.TID 0000.0001)                   T
(PID.TID 0000.0001)     ;
(PID.TID 0000.0001) use3dCoriolis = /* 3-D Coriolis on/off flag */
(PID.TID 0000.0001)                   F
(PID.TID 0000.0001)     ;
(PID.TID 0000.0001) useCoriolis =  /* Coriolis on/off flag */
(PID.TID 0000.0001)                   T
(PID.TID 0000.0001)     ;
(PID.TID 0000.0001) useCDscheme =  /* CD scheme on/off flag */
(PID.TID 0000.0001)                   T
(PID.TID 0000.0001)     ;
(PID.TID 0000.0001) useJamartWetPoints= /* Coriolis WetPoints method flag */
(PID.TID 0000.0001)                   F
(PID.TID 0000.0001)     ;
(PID.TID 0000.0001) useJamartMomAdv= /* V.I. Non-linear terms Jamart flag */
(PID.TID 0000.0001)                   F
(PID.TID 0000.0001)     ;
(PID.TID 0000.0001) useAbsVorticity= /* Work with f+zeta in Coriolis */
(PID.TID 0000.0001)                   F
(PID.TID 0000.0001)     ;
(PID.TID 0000.0001) selectVortScheme= /* Scheme selector for Vorticity-Term */
(PID.TID 0000.0001)               123456789
(PID.TID 0000.0001)    = 0 : enstrophy (Shallow-Water Eq.) conserving scheme by Sadourny, JAS 75
(PID.TID 0000.0001)    = 1 : same as 0 with modified hFac
(PID.TID 0000.0001)    = 2 : energy conserving scheme (used by Sadourny in JAS 75 paper)
(PID.TID 0000.0001)    = 3 : energy (general) and enstrophy (2D, nonDiv.) conserving scheme
(PID.TID 0000.0001)          from Sadourny (Burridge & Haseler, ECMWF Rep.4, 1977)
(PID.TID 0000.0001)     ;
(PID.TID 0000.0001) upwindVorticity= /* Upwind bias vorticity flag */
(PID.TID 0000.0001)                   F
(PID.TID 0000.0001)     ;
(PID.TID 0000.0001) highOrderVorticity= /* High order interp. of vort. flag */
(PID.TID 0000.0001)                   F
(PID.TID 0000.0001)     ;
(PID.TID 0000.0001) upwindShear= /* Upwind vertical Shear advection flag */
(PID.TID 0000.0001)                   F
(PID.TID 0000.0001)     ;
(PID.TID 0000.0001) selectKEscheme= /* Kinetic Energy scheme selector */
(PID.TID 0000.0001)                       0
(PID.TID 0000.0001)     ;
(PID.TID 0000.0001) momForcing =  /* Momentum forcing on/off flag */
(PID.TID 0000.0001)                   T
(PID.TID 0000.0001)     ;
(PID.TID 0000.0001) momPressureForcing =  /* Momentum pressure term on/off flag */
(PID.TID 0000.0001)                   T
(PID.TID 0000.0001)     ;
(PID.TID 0000.0001) implicitIntGravWave= /* Implicit Internal Gravity Wave flag */
(PID.TID 0000.0001)                   F
(PID.TID 0000.0001)     ;
(PID.TID 0000.0001) staggerTimeStep =   /* Stagger time stepping on/off flag */
(PID.TID 0000.0001)                   F
(PID.TID 0000.0001)     ;
(PID.TID 0000.0001) multiDimAdvection =   /* enable/disable Multi-Dim Advection */
(PID.TID 0000.0001)                   T
(PID.TID 0000.0001)     ;
(PID.TID 0000.0001) useMultiDimAdvec =   /* Multi-Dim Advection is/is-not used */
(PID.TID 0000.0001)                   F
(PID.TID 0000.0001)     ;
(PID.TID 0000.0001) implicitDiffusion =/* Implicit Diffusion on/off flag */
(PID.TID 0000.0001)                   T
(PID.TID 0000.0001)     ;
(PID.TID 0000.0001) tempStepping =  /* Temperature equation on/off flag */
(PID.TID 0000.0001)                   T
(PID.TID 0000.0001)     ;
(PID.TID 0000.0001) tempAdvection=  /* Temperature advection on/off flag */
(PID.TID 0000.0001)                   T
(PID.TID 0000.0001)     ;
(PID.TID 0000.0001) tempImplVertAdv =/* Temp. implicit vert. advection on/off */
(PID.TID 0000.0001)                   F
(PID.TID 0000.0001)     ;
(PID.TID 0000.0001) tempForcing  =  /* Temperature forcing on/off flag */
(PID.TID 0000.0001)                   T
(PID.TID 0000.0001)     ;
(PID.TID 0000.0001) tempIsActiveTr = /* Temp. is a dynamically Active Tracer */
(PID.TID 0000.0001)                   T
(PID.TID 0000.0001)     ;
(PID.TID 0000.0001) saltStepping =  /* Salinity equation on/off flag */
(PID.TID 0000.0001)                   T
(PID.TID 0000.0001)     ;
(PID.TID 0000.0001) saltAdvection=  /* Salinity advection on/off flag */
(PID.TID 0000.0001)                   T
(PID.TID 0000.0001)     ;
(PID.TID 0000.0001) saltImplVertAdv =/* Sali. implicit vert. advection on/off */
(PID.TID 0000.0001)                   F
(PID.TID 0000.0001)     ;
(PID.TID 0000.0001) saltForcing  =  /* Salinity forcing on/off flag */
(PID.TID 0000.0001)                   T
(PID.TID 0000.0001)     ;
(PID.TID 0000.0001) saltIsActiveTr = /* Salt  is a dynamically Active Tracer */
(PID.TID 0000.0001)                   T
(PID.TID 0000.0001)     ;
(PID.TID 0000.0001)  readBinaryPrec = /* Precision used for reading binary files */
(PID.TID 0000.0001)                      32
(PID.TID 0000.0001)     ;
(PID.TID 0000.0001) writeBinaryPrec = /* Precision used for writing binary files */
(PID.TID 0000.0001)                      32
(PID.TID 0000.0001)     ;
(PID.TID 0000.0001)  globalFiles = /* write "global" (=not per tile) files */
(PID.TID 0000.0001)                   F
(PID.TID 0000.0001)     ;
(PID.TID 0000.0001)  useSingleCpuIO = /* only master MPI process does I/O */
(PID.TID 0000.0001)                   F
(PID.TID 0000.0001)     ;
(PID.TID 0000.0001)  debugMode  =  /* Debug Mode on/off flag */
(PID.TID 0000.0001)                   F
(PID.TID 0000.0001)     ;
(PID.TID 0000.0001)    debLevA  =  /* 1rst level of debugging */
(PID.TID 0000.0001)                       1
(PID.TID 0000.0001)     ;
(PID.TID 0000.0001)    debLevB  =  /* 2nd  level of debugging */
(PID.TID 0000.0001)                       2
(PID.TID 0000.0001)     ;
(PID.TID 0000.0001)  debugLevel =  /* select debugging level */
(PID.TID 0000.0001)                       1
(PID.TID 0000.0001)     ;
(PID.TID 0000.0001) //
(PID.TID 0000.0001) // Elliptic solver(s) paramters ( PARM02 in namelist )
(PID.TID 0000.0001) //
(PID.TID 0000.0001) cg2dMaxIters =   /* Upper limit on 2d con. grad iterations  */
(PID.TID 0000.0001)                     500
(PID.TID 0000.0001)     ;
(PID.TID 0000.0001) cg2dChkResFreq =   /* 2d con. grad convergence test frequency */
(PID.TID 0000.0001)                       1
(PID.TID 0000.0001)     ;
(PID.TID 0000.0001) cg2dTargetResidual =   /* 2d con. grad target residual  */
(PID.TID 0000.0001)                 1.000000000000000E-19
(PID.TID 0000.0001)     ;
(PID.TID 0000.0001) cg2dTargetResWunit =   /* CG2d target residual [W units] */
(PID.TID 0000.0001)                -1.000000000000000E+00
(PID.TID 0000.0001)     ;
(PID.TID 0000.0001) cg2dPreCondFreq =   /* Freq. for updating cg2d preconditioner */
(PID.TID 0000.0001)                       1
(PID.TID 0000.0001)     ;
(PID.TID 0000.0001) //
(PID.TID 0000.0001) // Time stepping paramters ( PARM03 in namelist )
(PID.TID 0000.0001) //
(PID.TID 0000.0001) deltaTmom =   /* Momentum equation timestep ( s ) */
(PID.TID 0000.0001)                 1.800000000000000E+03
(PID.TID 0000.0001)     ;
(PID.TID 0000.0001) deltaTfreesurf = /* FreeSurface equation timestep ( s ) */
(PID.TID 0000.0001)                 8.640000000000000E+04
(PID.TID 0000.0001)     ;
(PID.TID 0000.0001) dTtracerLev =  /* Tracer equation timestep ( s ) */
(PID.TID 0000.0001)    15 @  8.640000000000000E+04              /* K =  1: 15 */
(PID.TID 0000.0001)     ;
(PID.TID 0000.0001) deltaTClock  =   /* Model clock timestep ( s ) */
(PID.TID 0000.0001)                 8.640000000000000E+04
(PID.TID 0000.0001)     ;
(PID.TID 0000.0001) cAdjFreq =   /* Convective adjustment interval ( s ) */
(PID.TID 0000.0001)                 0.000000000000000E+00
(PID.TID 0000.0001)     ;
(PID.TID 0000.0001) momForcingOutAB = /* =1: take Momentum Forcing out of Adams-Bash. stepping */
(PID.TID 0000.0001)                       0
(PID.TID 0000.0001)     ;
(PID.TID 0000.0001) tracForcingOutAB = /* =1: take T,S,pTr Forcing out of Adams-Bash. stepping */
(PID.TID 0000.0001)                       0
(PID.TID 0000.0001)     ;
(PID.TID 0000.0001) momDissip_In_AB = /* put Dissipation Tendency in Adams-Bash. stepping */
(PID.TID 0000.0001)                   T
(PID.TID 0000.0001)     ;
(PID.TID 0000.0001) doAB_onGtGs = /* apply AB on Tendencies (rather than on T,S)*/
(PID.TID 0000.0001)                   T
(PID.TID 0000.0001)     ;
(PID.TID 0000.0001) abEps =   /* Adams-Bashforth-2 stabilizing weight */
(PID.TID 0000.0001)                 1.000000000000000E-01
(PID.TID 0000.0001)     ;
(PID.TID 0000.0001) tauCD =   /* CD coupling time-scale ( s ) */
(PID.TID 0000.0001)                 3.214280000000000E+05
(PID.TID 0000.0001)     ;
(PID.TID 0000.0001) rCD =   /* Normalised CD coupling parameter */
(PID.TID 0000.0001)                 9.943999900444267E-01
(PID.TID 0000.0001)     ;
(PID.TID 0000.0001) pickupStrictlyMatch= /* stop if pickup do not strictly match */
(PID.TID 0000.0001)                   T
(PID.TID 0000.0001)     ;
(PID.TID 0000.0001) nIter0 =   /* Run starting timestep number  */
(PID.TID 0000.0001)                       0
(PID.TID 0000.0001)     ;
(PID.TID 0000.0001) nTimeSteps =   /* Number of timesteps */
(PID.TID 0000.0001)                      10
(PID.TID 0000.0001)     ;
(PID.TID 0000.0001) baseTime =   /* Model base time ( s ). */
(PID.TID 0000.0001)                 0.000000000000000E+00
(PID.TID 0000.0001)     ;
(PID.TID 0000.0001) startTime =   /* Run start time ( s ). */
(PID.TID 0000.0001)                 0.000000000000000E+00
(PID.TID 0000.0001)     ;
(PID.TID 0000.0001) endTime =   /* Integration ending time ( s ). */
(PID.TID 0000.0001)                 8.640000000000000E+05
(PID.TID 0000.0001)     ;
(PID.TID 0000.0001) pChkPtFreq =   /* Permanent restart/checkpoint file interval ( s ). */
(PID.TID 0000.0001)                 2.592000000000000E+06
(PID.TID 0000.0001)     ;
(PID.TID 0000.0001) chkPtFreq =   /* Rolling restart/checkpoint file interval ( s ). */
(PID.TID 0000.0001)                 0.000000000000000E+00
(PID.TID 0000.0001)     ;
(PID.TID 0000.0001) pickup_write_mdsio =   /* Model IO flag. */
(PID.TID 0000.0001)                   T
(PID.TID 0000.0001)     ;
(PID.TID 0000.0001) pickup_read_mdsio =   /* Model IO flag. */
(PID.TID 0000.0001)                   T
(PID.TID 0000.0001)     ;
(PID.TID 0000.0001) pickup_write_immed =   /* Model IO flag. */
(PID.TID 0000.0001)                   F
(PID.TID 0000.0001)     ;
(PID.TID 0000.0001) writePickupAtEnd =   /* Model IO flag. */
(PID.TID 0000.0001)                   T
(PID.TID 0000.0001)     ;
(PID.TID 0000.0001) dumpFreq =   /* Model state write out interval ( s ). */
(PID.TID 0000.0001)                 2.592000000000000E+06
(PID.TID 0000.0001)     ;
(PID.TID 0000.0001) dumpInitAndLast= /* write out Initial & Last iter. model state */
(PID.TID 0000.0001)                   T
(PID.TID 0000.0001)     ;
(PID.TID 0000.0001) snapshot_mdsio =   /* Model IO flag. */
(PID.TID 0000.0001)                   T
(PID.TID 0000.0001)     ;
(PID.TID 0000.0001) monitorFreq =   /* Monitor output interval ( s ). */
(PID.TID 0000.0001)                 1.000000000000000E+00
(PID.TID 0000.0001)     ;
(PID.TID 0000.0001) monitorSelect = /* select group of variables to monitor */
(PID.TID 0000.0001)                       3
(PID.TID 0000.0001)     ;
(PID.TID 0000.0001) monitor_stdio =   /* Model IO flag. */
(PID.TID 0000.0001)                   T
(PID.TID 0000.0001)     ;
(PID.TID 0000.0001) externForcingPeriod =   /* forcing period (s) */
(PID.TID 0000.0001)                 2.592000000000000E+06
(PID.TID 0000.0001)     ;
(PID.TID 0000.0001) externForcingCycle =   /* period of the cyle (s). */
(PID.TID 0000.0001)                 3.110400000000000E+07
(PID.TID 0000.0001)     ;
(PID.TID 0000.0001) tauThetaClimRelax =   /* relaxation time scale (s) */
(PID.TID 0000.0001)                 0.000000000000000E+00
(PID.TID 0000.0001)     ;
(PID.TID 0000.0001) tauSaltClimRelax =   /* relaxation time scale (s) */
(PID.TID 0000.0001)                 1.555200000000000E+07
(PID.TID 0000.0001)     ;
(PID.TID 0000.0001) latBandClimRelax =   /* max. Lat. where relaxation */
(PID.TID 0000.0001)                 1.800000000000000E+02
(PID.TID 0000.0001)     ;
(PID.TID 0000.0001) //
(PID.TID 0000.0001) // Gridding paramters ( PARM04 in namelist )
(PID.TID 0000.0001) //
(PID.TID 0000.0001) usingCartesianGrid = /* Cartesian coordinates flag ( True/False ) */
(PID.TID 0000.0001)                   F
(PID.TID 0000.0001)     ;
(PID.TID 0000.0001) usingCylindricalGrid = /* Cylindrical coordinates flag ( True/False ) */
(PID.TID 0000.0001)                   F
(PID.TID 0000.0001)     ;
(PID.TID 0000.0001) usingSphericalPolarGrid = /* Spherical coordinates flag ( True/False ) */
(PID.TID 0000.0001)                   T
(PID.TID 0000.0001)     ;
(PID.TID 0000.0001) usingCurvilinearGrid = /* Curvilinear coordinates flag ( True/False ) */
(PID.TID 0000.0001)                   F
(PID.TID 0000.0001)     ;
(PID.TID 0000.0001) Ro_SeaLevel = /* r(1) ( units of r ==  m ) */
(PID.TID 0000.0001)                 0.000000000000000E+00
(PID.TID 0000.0001)     ;
(PID.TID 0000.0001) rkSign =   /* index orientation relative to vertical coordinate */
(PID.TID 0000.0001)                -1.000000000000000E+00
(PID.TID 0000.0001)     ;
(PID.TID 0000.0001) gravitySign = /* gravity orientation relative to vertical coordinate */
(PID.TID 0000.0001)                -1.000000000000000E+00
(PID.TID 0000.0001)     ;
(PID.TID 0000.0001) mass2rUnit = /* convert mass per unit area [kg/m2] to r-units [m] */
(PID.TID 0000.0001)                 9.661835748792270E-04
(PID.TID 0000.0001)     ;
(PID.TID 0000.0001) rUnit2mass = /* convert r-units [m] to mass per unit area [kg/m2] */
(PID.TID 0000.0001)                 1.035000000000000E+03
(PID.TID 0000.0001)     ;
(PID.TID 0000.0001) drC =   /* C spacing ( units of r ) */
(PID.TID 0000.0001)                 2.500000000000000E+01,      /* K =  1 */
(PID.TID 0000.0001)                 6.000000000000000E+01,      /* K =  2 */
(PID.TID 0000.0001)                 8.500000000000000E+01,      /* K =  3 */
(PID.TID 0000.0001)                 1.200000000000000E+02,      /* K =  4 */
(PID.TID 0000.0001)                 1.650000000000000E+02,      /* K =  5 */
(PID.TID 0000.0001)                 2.150000000000000E+02,      /* K =  6 */
(PID.TID 0000.0001)                 2.650000000000000E+02,      /* K =  7 */
(PID.TID 0000.0001)                 3.150000000000000E+02,      /* K =  8 */
(PID.TID 0000.0001)                 3.650000000000000E+02,      /* K =  9 */
(PID.TID 0000.0001)                 4.150000000000000E+02,      /* K = 10 */
(PID.TID 0000.0001)                 4.650000000000000E+02,      /* K = 11 */
(PID.TID 0000.0001)                 5.150000000000000E+02,      /* K = 12 */
(PID.TID 0000.0001)                 5.650000000000000E+02,      /* K = 13 */
(PID.TID 0000.0001)                 6.150000000000000E+02,      /* K = 14 */
(PID.TID 0000.0001)                 6.650000000000000E+02       /* K = 15 */
(PID.TID 0000.0001)     ;
(PID.TID 0000.0001) drF =   /* W spacing ( units of r ) */
(PID.TID 0000.0001)                 5.000000000000000E+01,      /* K =  1 */
(PID.TID 0000.0001)                 7.000000000000000E+01,      /* K =  2 */
(PID.TID 0000.0001)                 1.000000000000000E+02,      /* K =  3 */
(PID.TID 0000.0001)                 1.400000000000000E+02,      /* K =  4 */
(PID.TID 0000.0001)                 1.900000000000000E+02,      /* K =  5 */
(PID.TID 0000.0001)                 2.400000000000000E+02,      /* K =  6 */
(PID.TID 0000.0001)                 2.900000000000000E+02,      /* K =  7 */
(PID.TID 0000.0001)                 3.400000000000000E+02,      /* K =  8 */
(PID.TID 0000.0001)                 3.900000000000000E+02,      /* K =  9 */
(PID.TID 0000.0001)                 4.400000000000000E+02,      /* K = 10 */
(PID.TID 0000.0001)                 4.900000000000000E+02,      /* K = 11 */
(PID.TID 0000.0001)                 5.400000000000000E+02,      /* K = 12 */
(PID.TID 0000.0001)                 5.900000000000000E+02,      /* K = 13 */
(PID.TID 0000.0001)                 6.400000000000000E+02,      /* K = 14 */
(PID.TID 0000.0001)                 6.900000000000000E+02       /* K = 15 */
(PID.TID 0000.0001)     ;
(PID.TID 0000.0001) delX = /* U spacing ( m - cartesian, degrees - spherical ) */
(PID.TID 0000.0001)    90 @  4.000000000000000E+00              /* I =  1: 90 */
(PID.TID 0000.0001)     ;
(PID.TID 0000.0001) delY = /* V spacing ( m - cartesian, degrees - spherical ) */
(PID.TID 0000.0001)    40 @  4.000000000000000E+00              /* J =  1: 40 */
(PID.TID 0000.0001)     ;
(PID.TID 0000.0001) xgOrigin = /* X-axis origin of West  edge (cartesian: m, lat-lon: deg.) */
(PID.TID 0000.0001)                 0.000000000000000E+00
(PID.TID 0000.0001)     ;
(PID.TID 0000.0001) ygOrigin = /* Y-axis origin of South edge (cartesian: m, lat-lon: deg.) */
(PID.TID 0000.0001)                -8.000000000000000E+01
(PID.TID 0000.0001)     ;
(PID.TID 0000.0001) rSphere =  /* Radius ( ignored - cartesian, m - spherical ) */
(PID.TID 0000.0001)                 6.370000000000000E+06
(PID.TID 0000.0001)     ;
(PID.TID 0000.0001) deepAtmosphere = /* Deep/Shallow Atmosphere flag (True/False) */
(PID.TID 0000.0001)                   F
(PID.TID 0000.0001)     ;
(PID.TID 0000.0001) xC =  /* xC(:,1,:,1) : P-point X coord ( deg. or m if cartesian) */
(PID.TID 0000.0001)                 2.000000000000000E+00,      /* I =  1 */
(PID.TID 0000.0001)                 6.000000000000000E+00,      /* I =  2 */
(PID.TID 0000.0001)                 1.000000000000000E+01,      /* I =  3 */
(PID.TID 0000.0001)      . . .
(PID.TID 0000.0001)                 8.200000000000000E+01,      /* I = 21 */
(PID.TID 0000.0001)                 8.600000000000000E+01,      /* I = 22 */
(PID.TID 0000.0001)                 9.000000000000000E+01,      /* I = 23 */
(PID.TID 0000.0001)                 9.400000000000000E+01,      /* I = 24 */
(PID.TID 0000.0001)                 9.800000000000000E+01,      /* I = 25 */
(PID.TID 0000.0001)                 1.020000000000000E+02,      /* I = 26 */
(PID.TID 0000.0001)      . . .
(PID.TID 0000.0001)                 1.700000000000000E+02,      /* I = 43 */
(PID.TID 0000.0001)                 1.740000000000000E+02,      /* I = 44 */
(PID.TID 0000.0001)                 1.780000000000000E+02,      /* I = 45 */
(PID.TID 0000.0001)                 1.820000000000000E+02,      /* I = 46 */
(PID.TID 0000.0001)                 1.860000000000000E+02,      /* I = 47 */
(PID.TID 0000.0001)                 1.900000000000000E+02,      /* I = 48 */
(PID.TID 0000.0001)      . . .
(PID.TID 0000.0001)                 2.580000000000000E+02,      /* I = 65 */
(PID.TID 0000.0001)                 2.620000000000000E+02,      /* I = 66 */
(PID.TID 0000.0001)                 2.660000000000000E+02,      /* I = 67 */
(PID.TID 0000.0001)                 2.700000000000000E+02,      /* I = 68 */
(PID.TID 0000.0001)                 2.740000000000000E+02,      /* I = 69 */
(PID.TID 0000.0001)                 2.780000000000000E+02,      /* I = 70 */
(PID.TID 0000.0001)      . . .
(PID.TID 0000.0001)                 3.500000000000000E+02,      /* I = 88 */
(PID.TID 0000.0001)                 3.540000000000000E+02,      /* I = 89 */
(PID.TID 0000.0001)                 3.580000000000000E+02       /* I = 90 */
(PID.TID 0000.0001)     ;
(PID.TID 0000.0001) yC =  /* yC(1,:,1,:) : P-point Y coord ( deg. or m if cartesian) */
(PID.TID 0000.0001)                -7.800000000000000E+01,      /* J =  1 */
(PID.TID 0000.0001)                -7.400000000000000E+01,      /* J =  2 */
(PID.TID 0000.0001)                -7.000000000000000E+01,      /* J =  3 */
(PID.TID 0000.0001)                -6.600000000000000E+01,      /* J =  4 */
(PID.TID 0000.0001)                -6.200000000000000E+01,      /* J =  5 */
(PID.TID 0000.0001)                -5.800000000000000E+01,      /* J =  6 */
(PID.TID 0000.0001)                -5.400000000000000E+01,      /* J =  7 */
(PID.TID 0000.0001)                -5.000000000000000E+01,      /* J =  8 */
(PID.TID 0000.0001)                -4.600000000000000E+01,      /* J =  9 */
(PID.TID 0000.0001)                -4.200000000000000E+01,      /* J = 10 */
(PID.TID 0000.0001)                -3.800000000000000E+01,      /* J = 11 */
(PID.TID 0000.0001)                -3.400000000000000E+01,      /* J = 12 */
(PID.TID 0000.0001)                -3.000000000000000E+01,      /* J = 13 */
(PID.TID 0000.0001)                -2.600000000000000E+01,      /* J = 14 */
(PID.TID 0000.0001)                -2.200000000000000E+01,      /* J = 15 */
(PID.TID 0000.0001)                -1.800000000000000E+01,      /* J = 16 */
(PID.TID 0000.0001)                -1.400000000000000E+01,      /* J = 17 */
(PID.TID 0000.0001)                -1.000000000000000E+01,      /* J = 18 */
(PID.TID 0000.0001)                -6.000000000000000E+00,      /* J = 19 */
(PID.TID 0000.0001)                -2.000000000000000E+00,      /* J = 20 */
(PID.TID 0000.0001)                 2.000000000000000E+00,      /* J = 21 */
(PID.TID 0000.0001)                 6.000000000000000E+00,      /* J = 22 */
(PID.TID 0000.0001)                 1.000000000000000E+01,      /* J = 23 */
(PID.TID 0000.0001)                 1.400000000000000E+01,      /* J = 24 */
(PID.TID 0000.0001)                 1.800000000000000E+01,      /* J = 25 */
(PID.TID 0000.0001)                 2.200000000000000E+01,      /* J = 26 */
(PID.TID 0000.0001)                 2.600000000000000E+01,      /* J = 27 */
(PID.TID 0000.0001)                 3.000000000000000E+01,      /* J = 28 */
(PID.TID 0000.0001)                 3.400000000000000E+01,      /* J = 29 */
(PID.TID 0000.0001)                 3.800000000000000E+01,      /* J = 30 */
(PID.TID 0000.0001)                 4.200000000000000E+01,      /* J = 31 */
(PID.TID 0000.0001)                 4.600000000000000E+01,      /* J = 32 */
(PID.TID 0000.0001)                 5.000000000000000E+01,      /* J = 33 */
(PID.TID 0000.0001)                 5.400000000000000E+01,      /* J = 34 */
(PID.TID 0000.0001)                 5.800000000000000E+01,      /* J = 35 */
(PID.TID 0000.0001)                 6.200000000000000E+01,      /* J = 36 */
(PID.TID 0000.0001)                 6.600000000000000E+01,      /* J = 37 */
(PID.TID 0000.0001)                 7.000000000000000E+01,      /* J = 38 */
(PID.TID 0000.0001)                 7.400000000000000E+01,      /* J = 39 */
(PID.TID 0000.0001)                 7.800000000000000E+01       /* J = 40 */
(PID.TID 0000.0001)     ;
(PID.TID 0000.0001) rcoord = /* P-point R coordinate (  units of r ) */
(PID.TID 0000.0001)                -2.500000000000000E+01,      /* K =  1 */
(PID.TID 0000.0001)                -8.500000000000000E+01,      /* K =  2 */
(PID.TID 0000.0001)                -1.700000000000000E+02,      /* K =  3 */
(PID.TID 0000.0001)                -2.900000000000000E+02,      /* K =  4 */
(PID.TID 0000.0001)                -4.550000000000000E+02,      /* K =  5 */
(PID.TID 0000.0001)                -6.700000000000000E+02,      /* K =  6 */
(PID.TID 0000.0001)                -9.350000000000000E+02,      /* K =  7 */
(PID.TID 0000.0001)                -1.250000000000000E+03,      /* K =  8 */
(PID.TID 0000.0001)                -1.615000000000000E+03,      /* K =  9 */
(PID.TID 0000.0001)                -2.030000000000000E+03,      /* K = 10 */
(PID.TID 0000.0001)                -2.495000000000000E+03,      /* K = 11 */
(PID.TID 0000.0001)                -3.010000000000000E+03,      /* K = 12 */
(PID.TID 0000.0001)                -3.575000000000000E+03,      /* K = 13 */
(PID.TID 0000.0001)                -4.190000000000000E+03,      /* K = 14 */
(PID.TID 0000.0001)                -4.855000000000000E+03       /* K = 15 */
(PID.TID 0000.0001)     ;
(PID.TID 0000.0001) rF =   /* W-Interf. R coordinate (  units of r ) */
(PID.TID 0000.0001)                 0.000000000000000E+00,      /* K =  1 */
(PID.TID 0000.0001)                -5.000000000000000E+01,      /* K =  2 */
(PID.TID 0000.0001)                -1.200000000000000E+02,      /* K =  3 */
(PID.TID 0000.0001)                -2.200000000000000E+02,      /* K =  4 */
(PID.TID 0000.0001)                -3.600000000000000E+02,      /* K =  5 */
(PID.TID 0000.0001)                -5.500000000000000E+02,      /* K =  6 */
(PID.TID 0000.0001)                -7.900000000000000E+02,      /* K =  7 */
(PID.TID 0000.0001)                -1.080000000000000E+03,      /* K =  8 */
(PID.TID 0000.0001)                -1.420000000000000E+03,      /* K =  9 */
(PID.TID 0000.0001)                -1.810000000000000E+03,      /* K = 10 */
(PID.TID 0000.0001)                -2.250000000000000E+03,      /* K = 11 */
(PID.TID 0000.0001)                -2.740000000000000E+03,      /* K = 12 */
(PID.TID 0000.0001)                -3.280000000000000E+03,      /* K = 13 */
(PID.TID 0000.0001)                -3.870000000000000E+03,      /* K = 14 */
(PID.TID 0000.0001)                -4.510000000000000E+03,      /* K = 15 */
(PID.TID 0000.0001)                -5.200000000000000E+03       /* K = 16 */
(PID.TID 0000.0001)     ;
(PID.TID 0000.0001) deepFacC = /* deep-model grid factor @ cell-Center (-) */
(PID.TID 0000.0001)    15 @  1.000000000000000E+00              /* K =  1: 15 */
(PID.TID 0000.0001)     ;
(PID.TID 0000.0001) deepFacF = /* deep-model grid factor @ W-Interface (-) */
(PID.TID 0000.0001)    16 @  1.000000000000000E+00              /* K =  1: 16 */
(PID.TID 0000.0001)     ;
(PID.TID 0000.0001) rVel2wUnit = /* convert units: rVel -> wSpeed (=1 if z-coord)*/
(PID.TID 0000.0001)    16 @  1.000000000000000E+00              /* K =  1: 16 */
(PID.TID 0000.0001)     ;
(PID.TID 0000.0001) wUnit2rVel = /* convert units: wSpeed -> rVel (=1 if z-coord)*/
(PID.TID 0000.0001)    16 @  1.000000000000000E+00              /* K =  1: 16 */
(PID.TID 0000.0001)     ;
(PID.TID 0000.0001) dBdrRef = /* Vertical gradient of reference boyancy [(m/s/r)^2)] */
(PID.TID 0000.0001)    15 @  0.000000000000000E+00              /* K =  1: 15 */
(PID.TID 0000.0001)     ;
(PID.TID 0000.0001) rotateGrid = /* use rotated grid ( True/False ) */
(PID.TID 0000.0001)                   F
(PID.TID 0000.0001)     ;
(PID.TID 0000.0001) phiEuler = /* Euler angle, rotation about original z-coordinate [rad] */
(PID.TID 0000.0001)                 0.000000000000000E+00
(PID.TID 0000.0001)     ;
(PID.TID 0000.0001) thetaEuler = /* Euler angle, rotation about new x-coordinate [rad] */
(PID.TID 0000.0001)                 0.000000000000000E+00
(PID.TID 0000.0001)     ;
(PID.TID 0000.0001) psiEuler = /* Euler angle, rotation about new z-coordinate [rad] */
(PID.TID 0000.0001)                 0.000000000000000E+00
(PID.TID 0000.0001)     ;
(PID.TID 0000.0001) dxF =  /* dxF(:,1,:,1) ( units: m ) */
(PID.TID 0000.0001)    90 @  9.246038586187513E+04              /* I =  1: 90 */
(PID.TID 0000.0001)     ;
(PID.TID 0000.0001) dxF =  /* dxF(1,:,1,:) ( units: m ) */
(PID.TID 0000.0001)                 9.246038586187513E+04,      /* J =  1 */
(PID.TID 0000.0001)                 1.225786591246834E+05,      /* J =  2 */
(PID.TID 0000.0001)                 1.520997414818001E+05,      /* J =  3 */
(PID.TID 0000.0001)                 1.808798091874300E+05,      /* J =  4 */
(PID.TID 0000.0001)                 2.087786486446736E+05,      /* J =  5 */
(PID.TID 0000.0001)                 2.356603395120765E+05,      /* J =  6 */
(PID.TID 0000.0001)                 2.613939168938713E+05,      /* J =  7 */
(PID.TID 0000.0001)                 2.858540093877838E+05,      /* J =  8 */
(PID.TID 0000.0001)                 3.089214498819034E+05,      /* J =  9 */
(PID.TID 0000.0001)                 3.304838561248741E+05,      /* J = 10 */
(PID.TID 0000.0001)                 3.504361782409254E+05,      /* J = 11 */
(PID.TID 0000.0001)                 3.686812105223082E+05,      /* J = 12 */
(PID.TID 0000.0001)                 3.851300650057323E+05,      /* J = 13 */
(PID.TID 0000.0001)                 3.997026045255871E+05,      /* J = 14 */
(PID.TID 0000.0001)                 4.123278331341585E+05,      /* J = 15 */
(PID.TID 0000.0001)                 4.229442419867491E+05,      /* J = 16 */
(PID.TID 0000.0001)                 4.315001090065870E+05,      /* J = 17 */
(PID.TID 0000.0001)                 4.379537508695838E+05,      /* J = 18 */
(PID.TID 0000.0001)                 4.422737260813012E+05,      /* J = 19 */
(PID.TID 0000.0001)     2 @  4.444389881567502E+05,             /* J = 20: 21 */
(PID.TID 0000.0001)                 4.422737260813012E+05,      /* J = 22 */
(PID.TID 0000.0001)                 4.379537508695838E+05,      /* J = 23 */
(PID.TID 0000.0001)                 4.315001090065870E+05,      /* J = 24 */
(PID.TID 0000.0001)                 4.229442419867491E+05,      /* J = 25 */
(PID.TID 0000.0001)                 4.123278331341585E+05,      /* J = 26 */
(PID.TID 0000.0001)                 3.997026045255871E+05,      /* J = 27 */
(PID.TID 0000.0001)                 3.851300650057323E+05,      /* J = 28 */
(PID.TID 0000.0001)                 3.686812105223082E+05,      /* J = 29 */
(PID.TID 0000.0001)                 3.504361782409254E+05,      /* J = 30 */
(PID.TID 0000.0001)                 3.304838561248741E+05,      /* J = 31 */
(PID.TID 0000.0001)                 3.089214498819034E+05,      /* J = 32 */
(PID.TID 0000.0001)                 2.858540093877838E+05,      /* J = 33 */
(PID.TID 0000.0001)                 2.613939168938713E+05,      /* J = 34 */
(PID.TID 0000.0001)                 2.356603395120765E+05,      /* J = 35 */
(PID.TID 0000.0001)                 2.087786486446736E+05,      /* J = 36 */
(PID.TID 0000.0001)                 1.808798091874300E+05,      /* J = 37 */
(PID.TID 0000.0001)                 1.520997414818001E+05,      /* J = 38 */
(PID.TID 0000.0001)                 1.225786591246834E+05,      /* J = 39 */
(PID.TID 0000.0001)                 9.246038586187513E+04       /* J = 40 */
(PID.TID 0000.0001)     ;
(PID.TID 0000.0001) dyF =  /* dyF(:,1,:,1) ( units: m ) */
(PID.TID 0000.0001)    90 @  4.447098934081552E+05              /* I =  1: 90 */
(PID.TID 0000.0001)     ;
(PID.TID 0000.0001) dyF =  /* dyF(1,:,1,:) ( units: m ) */
(PID.TID 0000.0001)    40 @  4.447098934081552E+05              /* J =  1: 40 */
(PID.TID 0000.0001)     ;
(PID.TID 0000.0001) dxG =  /* dxG(:,1,:,1) ( units: m ) */
(PID.TID 0000.0001)    90 @  7.722306258078101E+04              /* I =  1: 90 */
(PID.TID 0000.0001)     ;
(PID.TID 0000.0001) dxG =  /* dxG(1,:,1,:) ( units: m ) */
(PID.TID 0000.0001)                 7.722306258078101E+04,      /* J =  1 */
(PID.TID 0000.0001)                 1.075850604052271E+05,      /* J =  2 */
(PID.TID 0000.0001)                 1.374229146297914E+05,      /* J =  3 */
(PID.TID 0000.0001)                 1.665912582279823E+05,      /* J =  4 */
(PID.TID 0000.0001)                 1.949479859617814E+05,      /* J =  5 */
(PID.TID 0000.0001)                 2.223549467040777E+05,      /* J =  6 */
(PID.TID 0000.0001)                 2.486786164970726E+05,      /* J =  7 */
(PID.TID 0000.0001)                 2.737907490675810E+05,      /* J =  8 */
(PID.TID 0000.0001)                 2.975690006299821E+05,      /* J =  9 */
(PID.TID 0000.0001)                 3.198975259328452E+05,      /* J = 10 */
(PID.TID 0000.0001)                 3.406675426453503E+05,      /* J = 11 */
(PID.TID 0000.0001)                 3.597778613338690E+05,      /* J = 12 */
(PID.TID 0000.0001)                 3.771353784467131E+05,      /* J = 13 */
(PID.TID 0000.0001)                 3.926555299052806E+05,      /* J = 14 */
(PID.TID 0000.0001)                 4.062627030917454E+05,      /* J = 15 */
(PID.TID 0000.0001)                 4.178906052261313E+05,      /* J = 16 */
(PID.TID 0000.0001)                 4.274825863380723E+05,      /* J = 17 */
(PID.TID 0000.0001)                 4.349919152597734E+05,      /* J = 18 */
(PID.TID 0000.0001)                 4.403820072955634E+05,      /* J = 19 */
(PID.TID 0000.0001)                 4.436266024588540E+05,      /* J = 20 */
(PID.TID 0000.0001)                 4.447098934081552E+05,      /* J = 21 */
(PID.TID 0000.0001)                 4.436266024588540E+05,      /* J = 22 */
(PID.TID 0000.0001)                 4.403820072955634E+05,      /* J = 23 */
(PID.TID 0000.0001)                 4.349919152597734E+05,      /* J = 24 */
(PID.TID 0000.0001)                 4.274825863380723E+05,      /* J = 25 */
(PID.TID 0000.0001)                 4.178906052261313E+05,      /* J = 26 */
(PID.TID 0000.0001)                 4.062627030917454E+05,      /* J = 27 */
(PID.TID 0000.0001)                 3.926555299052806E+05,      /* J = 28 */
(PID.TID 0000.0001)                 3.771353784467131E+05,      /* J = 29 */
(PID.TID 0000.0001)                 3.597778613338690E+05,      /* J = 30 */
(PID.TID 0000.0001)                 3.406675426453503E+05,      /* J = 31 */
(PID.TID 0000.0001)                 3.198975259328452E+05,      /* J = 32 */
(PID.TID 0000.0001)                 2.975690006299821E+05,      /* J = 33 */
(PID.TID 0000.0001)                 2.737907490675810E+05,      /* J = 34 */
(PID.TID 0000.0001)                 2.486786164970726E+05,      /* J = 35 */
(PID.TID 0000.0001)                 2.223549467040777E+05,      /* J = 36 */
(PID.TID 0000.0001)                 1.949479859617814E+05,      /* J = 37 */
(PID.TID 0000.0001)                 1.665912582279823E+05,      /* J = 38 */
(PID.TID 0000.0001)                 1.374229146297914E+05,      /* J = 39 */
(PID.TID 0000.0001)                 1.075850604052271E+05       /* J = 40 */
(PID.TID 0000.0001)     ;
(PID.TID 0000.0001) dyG =  /* dyG(:,1,:,1) ( units: m ) */
(PID.TID 0000.0001)    90 @  4.447098934081552E+05              /* I =  1: 90 */
(PID.TID 0000.0001)     ;
(PID.TID 0000.0001) dyG =  /* dyG(1,:,1,:) ( units: m ) */
(PID.TID 0000.0001)    40 @  4.447098934081552E+05              /* J =  1: 40 */
(PID.TID 0000.0001)     ;
(PID.TID 0000.0001) dxC =  /* dxC(:,1,:,1) ( units: m ) */
(PID.TID 0000.0001)    90 @  9.246038586187513E+04              /* I =  1: 90 */
(PID.TID 0000.0001)     ;
(PID.TID 0000.0001) dxC =  /* dxC(1,:,1,:) ( units: m ) */
(PID.TID 0000.0001)                 9.246038586187513E+04,      /* J =  1 */
(PID.TID 0000.0001)                 1.225786591246834E+05,      /* J =  2 */
(PID.TID 0000.0001)                 1.520997414818001E+05,      /* J =  3 */
(PID.TID 0000.0001)                 1.808798091874300E+05,      /* J =  4 */
(PID.TID 0000.0001)                 2.087786486446736E+05,      /* J =  5 */
(PID.TID 0000.0001)                 2.356603395120765E+05,      /* J =  6 */
(PID.TID 0000.0001)                 2.613939168938713E+05,      /* J =  7 */
(PID.TID 0000.0001)                 2.858540093877838E+05,      /* J =  8 */
(PID.TID 0000.0001)                 3.089214498819034E+05,      /* J =  9 */
(PID.TID 0000.0001)                 3.304838561248741E+05,      /* J = 10 */
(PID.TID 0000.0001)                 3.504361782409254E+05,      /* J = 11 */
(PID.TID 0000.0001)                 3.686812105223082E+05,      /* J = 12 */
(PID.TID 0000.0001)                 3.851300650057323E+05,      /* J = 13 */
(PID.TID 0000.0001)                 3.997026045255871E+05,      /* J = 14 */
(PID.TID 0000.0001)                 4.123278331341585E+05,      /* J = 15 */
(PID.TID 0000.0001)                 4.229442419867491E+05,      /* J = 16 */
(PID.TID 0000.0001)                 4.315001090065870E+05,      /* J = 17 */
(PID.TID 0000.0001)                 4.379537508695838E+05,      /* J = 18 */
(PID.TID 0000.0001)                 4.422737260813012E+05,      /* J = 19 */
(PID.TID 0000.0001)     2 @  4.444389881567502E+05,             /* J = 20: 21 */
(PID.TID 0000.0001)                 4.422737260813012E+05,      /* J = 22 */
(PID.TID 0000.0001)                 4.379537508695838E+05,      /* J = 23 */
(PID.TID 0000.0001)                 4.315001090065870E+05,      /* J = 24 */
(PID.TID 0000.0001)                 4.229442419867491E+05,      /* J = 25 */
(PID.TID 0000.0001)                 4.123278331341585E+05,      /* J = 26 */
(PID.TID 0000.0001)                 3.997026045255871E+05,      /* J = 27 */
(PID.TID 0000.0001)                 3.851300650057323E+05,      /* J = 28 */
(PID.TID 0000.0001)                 3.686812105223082E+05,      /* J = 29 */
(PID.TID 0000.0001)                 3.504361782409254E+05,      /* J = 30 */
(PID.TID 0000.0001)                 3.304838561248741E+05,      /* J = 31 */
(PID.TID 0000.0001)                 3.089214498819034E+05,      /* J = 32 */
(PID.TID 0000.0001)                 2.858540093877838E+05,      /* J = 33 */
(PID.TID 0000.0001)                 2.613939168938713E+05,      /* J = 34 */
(PID.TID 0000.0001)                 2.356603395120765E+05,      /* J = 35 */
(PID.TID 0000.0001)                 2.087786486446736E+05,      /* J = 36 */
(PID.TID 0000.0001)                 1.808798091874300E+05,      /* J = 37 */
(PID.TID 0000.0001)                 1.520997414818001E+05,      /* J = 38 */
(PID.TID 0000.0001)                 1.225786591246834E+05,      /* J = 39 */
(PID.TID 0000.0001)                 9.246038586187513E+04       /* J = 40 */
(PID.TID 0000.0001)     ;
(PID.TID 0000.0001) dyC =  /* dyC(:,1,:,1) ( units: m ) */
(PID.TID 0000.0001)    90 @  4.447098934081552E+05              /* I =  1: 90 */
(PID.TID 0000.0001)     ;
(PID.TID 0000.0001) dyC =  /* dyC(1,:,1,:) ( units: m ) */
(PID.TID 0000.0001)    40 @  4.447098934081552E+05              /* J =  1: 40 */
(PID.TID 0000.0001)     ;
(PID.TID 0000.0001) dxV =  /* dxV(:,1,:,1) ( units: m ) */
(PID.TID 0000.0001)    90 @  7.722306258078101E+04              /* I =  1: 90 */
(PID.TID 0000.0001)     ;
(PID.TID 0000.0001) dxV =  /* dxV(1,:,1,:) ( units: m ) */
(PID.TID 0000.0001)                 7.722306258078101E+04,      /* J =  1 */
(PID.TID 0000.0001)                 1.075850604052271E+05,      /* J =  2 */
(PID.TID 0000.0001)                 1.374229146297914E+05,      /* J =  3 */
(PID.TID 0000.0001)                 1.665912582279823E+05,      /* J =  4 */
(PID.TID 0000.0001)                 1.949479859617814E+05,      /* J =  5 */
(PID.TID 0000.0001)                 2.223549467040777E+05,      /* J =  6 */
(PID.TID 0000.0001)                 2.486786164970726E+05,      /* J =  7 */
(PID.TID 0000.0001)                 2.737907490675810E+05,      /* J =  8 */
(PID.TID 0000.0001)                 2.975690006299821E+05,      /* J =  9 */
(PID.TID 0000.0001)                 3.198975259328452E+05,      /* J = 10 */
(PID.TID 0000.0001)                 3.406675426453503E+05,      /* J = 11 */
(PID.TID 0000.0001)                 3.597778613338690E+05,      /* J = 12 */
(PID.TID 0000.0001)                 3.771353784467131E+05,      /* J = 13 */
(PID.TID 0000.0001)                 3.926555299052806E+05,      /* J = 14 */
(PID.TID 0000.0001)                 4.062627030917454E+05,      /* J = 15 */
(PID.TID 0000.0001)                 4.178906052261313E+05,      /* J = 16 */
(PID.TID 0000.0001)                 4.274825863380723E+05,      /* J = 17 */
(PID.TID 0000.0001)                 4.349919152597734E+05,      /* J = 18 */
(PID.TID 0000.0001)                 4.403820072955634E+05,      /* J = 19 */
(PID.TID 0000.0001)                 4.436266024588540E+05,      /* J = 20 */
(PID.TID 0000.0001)                 4.447098934081552E+05,      /* J = 21 */
(PID.TID 0000.0001)                 4.436266024588540E+05,      /* J = 22 */
(PID.TID 0000.0001)                 4.403820072955634E+05,      /* J = 23 */
(PID.TID 0000.0001)                 4.349919152597734E+05,      /* J = 24 */
(PID.TID 0000.0001)                 4.274825863380723E+05,      /* J = 25 */
(PID.TID 0000.0001)                 4.178906052261313E+05,      /* J = 26 */
(PID.TID 0000.0001)                 4.062627030917454E+05,      /* J = 27 */
(PID.TID 0000.0001)                 3.926555299052806E+05,      /* J = 28 */
(PID.TID 0000.0001)                 3.771353784467131E+05,      /* J = 29 */
(PID.TID 0000.0001)                 3.597778613338690E+05,      /* J = 30 */
(PID.TID 0000.0001)                 3.406675426453503E+05,      /* J = 31 */
(PID.TID 0000.0001)                 3.198975259328452E+05,      /* J = 32 */
(PID.TID 0000.0001)                 2.975690006299821E+05,      /* J = 33 */
(PID.TID 0000.0001)                 2.737907490675810E+05,      /* J = 34 */
(PID.TID 0000.0001)                 2.486786164970726E+05,      /* J = 35 */
(PID.TID 0000.0001)                 2.223549467040777E+05,      /* J = 36 */
(PID.TID 0000.0001)                 1.949479859617814E+05,      /* J = 37 */
(PID.TID 0000.0001)                 1.665912582279823E+05,      /* J = 38 */
(PID.TID 0000.0001)                 1.374229146297914E+05,      /* J = 39 */
(PID.TID 0000.0001)                 1.075850604052271E+05       /* J = 40 */
(PID.TID 0000.0001)     ;
(PID.TID 0000.0001) dyU =  /* dyU(:,1,:,1) ( units: m ) */
(PID.TID 0000.0001)    90 @  4.447098934081552E+05              /* I =  1: 90 */
(PID.TID 0000.0001)     ;
(PID.TID 0000.0001) dyU =  /* dyU(1,:,1,:) ( units: m ) */
(PID.TID 0000.0001)    40 @  4.447098934081552E+05              /* J =  1: 40 */
(PID.TID 0000.0001)     ;
(PID.TID 0000.0001) rA  =  /* rA (:,1,:,1) ( units: m^2 ) */
(PID.TID 0000.0001)    90 @  4.110969866729047E+10              /* I =  1: 90 */
(PID.TID 0000.0001)     ;
(PID.TID 0000.0001) rA  =  /* rA (1,:,1,:) ( units: m^2 ) */
(PID.TID 0000.0001)                 4.110969866729047E+10,      /* J =  1 */
(PID.TID 0000.0001)                 5.450087291636665E+10,      /* J =  2 */
(PID.TID 0000.0001)                 6.762652439100235E+10,      /* J =  3 */
(PID.TID 0000.0001)                 8.042270623659998E+10,      /* J =  4 */
(PID.TID 0000.0001)                 9.282707674147523E+10,      /* J =  5 */
(PID.TID 0000.0001)                 1.047792030594103E+11,      /* J =  6 */
(PID.TID 0000.0001)                 1.162208556324093E+11,      /* J =  7 */
(PID.TID 0000.0001)                 1.270962918792468E+11,      /* J =  8 */
(PID.TID 0000.0001)                 1.373525277677229E+11,      /* J =  9 */
(PID.TID 0000.0001)                 1.469395959475426E+11,      /* J = 10 */
(PID.TID 0000.0001)                 1.558107891862220E+11,      /* J = 11 */
(PID.TID 0000.0001)                 1.639228879220326E+11,      /* J = 12 */
(PID.TID 0000.0001)                 1.712363708253573E+11,      /* J = 13 */
(PID.TID 0000.0001)                 1.777156073426415E+11,      /* J = 14 */
(PID.TID 0000.0001)                 1.833290312848623E+11,      /* J = 15 */
(PID.TID 0000.0001)                 1.880492946148330E+11,      /* J = 16 */
(PID.TID 0000.0001)                 1.918534006840893E+11,      /* J = 17 */
(PID.TID 0000.0001)                 1.947228162702492E+11,      /* J = 18 */
(PID.TID 0000.0001)                 1.966435618690094E+11,      /* J = 19 */
(PID.TID 0000.0001)     2 @  1.976062798008856E+11,             /* J = 20: 21 */
(PID.TID 0000.0001)                 1.966435618690094E+11,      /* J = 22 */
(PID.TID 0000.0001)                 1.947228162702492E+11,      /* J = 23 */
(PID.TID 0000.0001)                 1.918534006840893E+11,      /* J = 24 */
(PID.TID 0000.0001)                 1.880492946148330E+11,      /* J = 25 */
(PID.TID 0000.0001)                 1.833290312848623E+11,      /* J = 26 */
(PID.TID 0000.0001)                 1.777156073426415E+11,      /* J = 27 */
(PID.TID 0000.0001)                 1.712363708253573E+11,      /* J = 28 */
(PID.TID 0000.0001)                 1.639228879220326E+11,      /* J = 29 */
(PID.TID 0000.0001)                 1.558107891862220E+11,      /* J = 30 */
(PID.TID 0000.0001)                 1.469395959475426E+11,      /* J = 31 */
(PID.TID 0000.0001)                 1.373525277677229E+11,      /* J = 32 */
(PID.TID 0000.0001)                 1.270962918792468E+11,      /* J = 33 */
(PID.TID 0000.0001)                 1.162208556324093E+11,      /* J = 34 */
(PID.TID 0000.0001)                 1.047792030594103E+11,      /* J = 35 */
(PID.TID 0000.0001)                 9.282707674147523E+10,      /* J = 36 */
(PID.TID 0000.0001)                 8.042270623659998E+10,      /* J = 37 */
(PID.TID 0000.0001)                 6.762652439100235E+10,      /* J = 38 */
(PID.TID 0000.0001)                 5.450087291636665E+10,      /* J = 39 */
(PID.TID 0000.0001)                 4.110969866729047E+10       /* J = 40 */
(PID.TID 0000.0001)     ;
(PID.TID 0000.0001) rAw =  /* rAw(:,1,:,1) ( units: m^2 ) */
(PID.TID 0000.0001)    90 @  4.110969866729047E+10              /* I =  1: 90 */
(PID.TID 0000.0001)     ;
(PID.TID 0000.0001) rAw =  /* rAw(1,:,1,:) ( units: m^2 ) */
(PID.TID 0000.0001)                 4.110969866729047E+10,      /* J =  1 */
(PID.TID 0000.0001)                 5.450087291636665E+10,      /* J =  2 */
(PID.TID 0000.0001)                 6.762652439100235E+10,      /* J =  3 */
(PID.TID 0000.0001)                 8.042270623659998E+10,      /* J =  4 */
(PID.TID 0000.0001)                 9.282707674147523E+10,      /* J =  5 */
(PID.TID 0000.0001)                 1.047792030594103E+11,      /* J =  6 */
(PID.TID 0000.0001)                 1.162208556324093E+11,      /* J =  7 */
(PID.TID 0000.0001)                 1.270962918792468E+11,      /* J =  8 */
(PID.TID 0000.0001)                 1.373525277677229E+11,      /* J =  9 */
(PID.TID 0000.0001)                 1.469395959475426E+11,      /* J = 10 */
(PID.TID 0000.0001)                 1.558107891862220E+11,      /* J = 11 */
(PID.TID 0000.0001)                 1.639228879220326E+11,      /* J = 12 */
(PID.TID 0000.0001)                 1.712363708253573E+11,      /* J = 13 */
(PID.TID 0000.0001)                 1.777156073426415E+11,      /* J = 14 */
(PID.TID 0000.0001)                 1.833290312848623E+11,      /* J = 15 */
(PID.TID 0000.0001)                 1.880492946148330E+11,      /* J = 16 */
(PID.TID 0000.0001)                 1.918534006840893E+11,      /* J = 17 */
(PID.TID 0000.0001)                 1.947228162702492E+11,      /* J = 18 */
(PID.TID 0000.0001)                 1.966435618690094E+11,      /* J = 19 */
(PID.TID 0000.0001)     2 @  1.976062798008856E+11,             /* J = 20: 21 */
(PID.TID 0000.0001)                 1.966435618690094E+11,      /* J = 22 */
(PID.TID 0000.0001)                 1.947228162702492E+11,      /* J = 23 */
(PID.TID 0000.0001)                 1.918534006840893E+11,      /* J = 24 */
(PID.TID 0000.0001)                 1.880492946148330E+11,      /* J = 25 */
(PID.TID 0000.0001)                 1.833290312848623E+11,      /* J = 26 */
(PID.TID 0000.0001)                 1.777156073426415E+11,      /* J = 27 */
(PID.TID 0000.0001)                 1.712363708253573E+11,      /* J = 28 */
(PID.TID 0000.0001)                 1.639228879220326E+11,      /* J = 29 */
(PID.TID 0000.0001)                 1.558107891862220E+11,      /* J = 30 */
(PID.TID 0000.0001)                 1.469395959475426E+11,      /* J = 31 */
(PID.TID 0000.0001)                 1.373525277677229E+11,      /* J = 32 */
(PID.TID 0000.0001)                 1.270962918792468E+11,      /* J = 33 */
(PID.TID 0000.0001)                 1.162208556324093E+11,      /* J = 34 */
(PID.TID 0000.0001)                 1.047792030594103E+11,      /* J = 35 */
(PID.TID 0000.0001)                 9.282707674147523E+10,      /* J = 36 */
(PID.TID 0000.0001)                 8.042270623659998E+10,      /* J = 37 */
(PID.TID 0000.0001)                 6.762652439100235E+10,      /* J = 38 */
(PID.TID 0000.0001)                 5.450087291636665E+10,      /* J = 39 */
(PID.TID 0000.0001)                 4.110969866729047E+10       /* J = 40 */
(PID.TID 0000.0001)     ;
(PID.TID 0000.0001) rAs =  /* rAs(:,1,:,1) ( units: m^2 ) */
(PID.TID 0000.0001)    90 @  3.433488626798250E+10              /* I =  1: 90 */
(PID.TID 0000.0001)     ;
(PID.TID 0000.0001) rAs =  /* rAs(1,:,1,:) ( units: m^2 ) */
(PID.TID 0000.0001)                 3.433488626798250E+10,      /* J =  1 */
(PID.TID 0000.0001)                 4.783442523123625E+10,      /* J =  2 */
(PID.TID 0000.0001)                 6.110091968306414E+10,      /* J =  3 */
(PID.TID 0000.0001)                 7.406973659603818E+10,      /* J =  4 */
(PID.TID 0000.0001)                 8.667769319778079E+10,      /* J =  5 */
(PID.TID 0000.0001)                 9.886336479107463E+10,      /* J =  6 */
(PID.TID 0000.0001)                 1.105673840088173E+11,      /* J =  7 */
(PID.TID 0000.0001)                 1.217327300458638E+11,      /* J =  8 */
(PID.TID 0000.0001)                 1.323050064586578E+11,      /* J =  9 */
(PID.TID 0000.0001)                 1.422327061792377E+11,      /* J = 10 */
(PID.TID 0000.0001)                 1.514674624524945E+11,      /* J = 11 */
(PID.TID 0000.0001)                 1.599642844741385E+11,      /* J = 12 */
(PID.TID 0000.0001)                 1.676817765813788E+11,      /* J = 13 */
(PID.TID 0000.0001)                 1.745823399284268E+11,      /* J = 14 */
(PID.TID 0000.0001)                 1.806323556642996E+11,      /* J = 15 */
(PID.TID 0000.0001)                 1.858023487204767E+11,      /* J = 16 */
(PID.TID 0000.0001)                 1.900671314104743E+11,      /* J = 17 */
(PID.TID 0000.0001)                 1.934059261417216E+11,      /* J = 18 */
(PID.TID 0000.0001)                 1.958024666419019E+11,      /* J = 19 */
(PID.TID 0000.0001)                 1.972450772065981E+11,      /* J = 20 */
(PID.TID 0000.0001)                 1.977267295821495E+11,      /* J = 21 */
(PID.TID 0000.0001)                 1.972450772065981E+11,      /* J = 22 */
(PID.TID 0000.0001)                 1.958024666419019E+11,      /* J = 23 */
(PID.TID 0000.0001)                 1.934059261417216E+11,      /* J = 24 */
(PID.TID 0000.0001)                 1.900671314104743E+11,      /* J = 25 */
(PID.TID 0000.0001)                 1.858023487204767E+11,      /* J = 26 */
(PID.TID 0000.0001)                 1.806323556642996E+11,      /* J = 27 */
(PID.TID 0000.0001)                 1.745823399284268E+11,      /* J = 28 */
(PID.TID 0000.0001)                 1.676817765813788E+11,      /* J = 29 */
(PID.TID 0000.0001)                 1.599642844741385E+11,      /* J = 30 */
(PID.TID 0000.0001)                 1.514674624524945E+11,      /* J = 31 */
(PID.TID 0000.0001)                 1.422327061792377E+11,      /* J = 32 */
(PID.TID 0000.0001)                 1.323050064586578E+11,      /* J = 33 */
(PID.TID 0000.0001)                 1.217327300458638E+11,      /* J = 34 */
(PID.TID 0000.0001)                 1.105673840088173E+11,      /* J = 35 */
(PID.TID 0000.0001)                 9.886336479107463E+10,      /* J = 36 */
(PID.TID 0000.0001)                 8.667769319778079E+10,      /* J = 37 */
(PID.TID 0000.0001)                 7.406973659603818E+10,      /* J = 38 */
(PID.TID 0000.0001)                 6.110091968306414E+10,      /* J = 39 */
(PID.TID 0000.0001)                 4.783442523123625E+10       /* J = 40 */
(PID.TID 0000.0001)     ;
(PID.TID 0000.0001) globalArea = /* Integrated horizontal Area (m^2) */
(PID.TID 0000.0001)                 3.450614146649749E+14
(PID.TID 0000.0001)     ;
(PID.TID 0000.0001) // =======================================================
(PID.TID 0000.0001) // End of Model config. summary
(PID.TID 0000.0001) // =======================================================
(PID.TID 0000.0001) 
(PID.TID 0000.0001) == Packages configuration : Check & print summary ==
(PID.TID 0000.0001) 
(PID.TID 0000.0001) GAD_CHECK: #define ALLOW_GENERIC_ADVDIFF
(PID.TID 0000.0001) GMREDI_CHECK: #define GMREDI
(PID.TID 0000.0001) GM_AdvForm =     /* if FALSE => use SkewFlux Form */
(PID.TID 0000.0001)                   F
(PID.TID 0000.0001)     ;
(PID.TID 0000.0001) GM_InMomAsStress = /* if TRUE => apply as Eddy Stress */
(PID.TID 0000.0001)                   F
(PID.TID 0000.0001)     ;
(PID.TID 0000.0001) GM_AdvSeparate = /* Calc Bolus & Euler Adv. separately */
(PID.TID 0000.0001)                   F
(PID.TID 0000.0001)     ;
(PID.TID 0000.0001) GM_ExtraDiag =   /* Tensor Extra Diag (line 1&2) non 0 */
(PID.TID 0000.0001)                   F
(PID.TID 0000.0001)     ;
(PID.TID 0000.0001) GM_isopycK =    /* Background Isopyc. Diffusivity [m^2/s] */
(PID.TID 0000.0001)                 1.000000000000000E+03
(PID.TID 0000.0001)     ;
(PID.TID 0000.0001) GM_skewflx*K =  /* Background GM_SkewFlx Diffusivity [m^2/s] */
(PID.TID 0000.0001)                 1.000000000000000E+03
(PID.TID 0000.0001)     ;
(PID.TID 0000.0001) GM_advec*K =    /* Backg. GM-Advec(=Bolus) Diffusivity [m^2/s]*/
(PID.TID 0000.0001)                 0.000000000000000E+00
(PID.TID 0000.0001)     ;
(PID.TID 0000.0001) GM_Kmin_horiz = /* Minimum Horizontal Diffusivity [m^2/s] */
(PID.TID 0000.0001)                 0.000000000000000E+00
(PID.TID 0000.0001)     ;
(PID.TID 0000.0001) GM_Visbeck_alpha = /* Visbeck alpha coeff. [-] */
(PID.TID 0000.0001)                 0.000000000000000E+00
(PID.TID 0000.0001)     ;
(PID.TID 0000.0001) GM_Small_Number =  /* epsilon used in slope calc */
(PID.TID 0000.0001)                 9.999999999999999E-21
(PID.TID 0000.0001)     ;
(PID.TID 0000.0001) GM_slopeSqCutoff = /* Slope^2 cut-off value */
(PID.TID 0000.0001)                 1.000000000000000E+08
(PID.TID 0000.0001)     ;
(PID.TID 0000.0001) GM_taper_scheme =  /* Type of Tapering/Clipping scheme */
(PID.TID 0000.0001)               'dm95                                    '
(PID.TID 0000.0001)     ;
(PID.TID 0000.0001) GM_maxSlope =  /* Maximum Slope (Tapering/Clipping) */
(PID.TID 0000.0001)                 1.000000000000000E-02
(PID.TID 0000.0001)     ;
(PID.TID 0000.0001) GM_facTrL2dz = /* Minimum Trans.Layer Thick. (factor of dz) */
(PID.TID 0000.0001)                 1.000000000000000E+00
(PID.TID 0000.0001)     ;
(PID.TID 0000.0001) GM_facTrL2ML = /* Max.Trans.Layer Thick. (factor of MxL Depth)*/
(PID.TID 0000.0001)                 5.000000000000000E+00
(PID.TID 0000.0001)     ;
(PID.TID 0000.0001) GM_maxTransLay = /* Maximum Transition Layer Thickness [m] */
(PID.TID 0000.0001)                 5.000000000000000E+02
(PID.TID 0000.0001)     ;
(PID.TID 0000.0001) CTRL_CHECK: ctrl package
(PID.TID 0000.0001) COST_CHECK: cost package
(PID.TID 0000.0001) CTRL_CHECK: ctrl package
(PID.TID 0000.0001) // =======================================================
(PID.TID 0000.0001) // CONFIG_CHECK : Normal End
(PID.TID 0000.0001) // =======================================================
(PID.TID 0000.0001) 
(PID.TID 0000.0001)  MDS_READ_FIELD: opening global file: bathymetry.bin
(PID.TID 0000.0001) // =======================================================
(PID.TID 0000.0001) // Field Model R_low (ini_masks_etc) at iteration          1
(PID.TID 0000.0001) // CMIN =         -5.200000000000000E+03
(PID.TID 0000.0001) // CMAX =         -1.200000000000000E+02
(PID.TID 0000.0001) // CINT =          1.881481481481482E+02
(PID.TID 0000.0001) // SYMBOLS (CMIN->CMAX): -abcdefghijklmnopqrstuvwxyz+
(PID.TID 0000.0001) //                  0.0: .
(PID.TID 0000.0001) // RANGE I (Lo:Hi:Step):(  -1:  92:   1)
(PID.TID 0000.0001) // RANGE J (Lo:Hi:Step):(  42:  -1:  -1)
(PID.TID 0000.0001) // RANGE K (Lo:Hi:Step):(   1:   1:   1)
(PID.TID 0000.0001) // =======================================================
(PID.TID 0000.0001) K =   1
(PID.TID 0000.0001) //                I=8       I=18      I=28      I=38      I=44      I=54      I=64      I=74      I=84
(PID.TID 0000.0001) // |--J--|101234567|901234567|901234567|901234567|901234567|567890123|567890123|567890123|567890123|56789012
(PID.TID 0000.0001) //     42 ............................................zyxxmyxxmgfeeefefgimnpwwwy..+zyy.....yyyyoiiihhz+.....
(PID.TID 0000.0001) //     41 ..................................................................................................
(PID.TID 0000.0001) //     40 qlloqz+.++++zzz++++++......................................................................+++qllo
(PID.TID 0000.0001) //     39 slloorzzzzzzzzz+...++.........................................................yxxz........+zvusllo
(PID.TID 0000.0001) //     38 mqpporzzzzzz+++...............................................................zxxy+......zyyvsmqpp
(PID.TID 0000.0001) //     37 mmmuz......................................................................++...zy+...yttyy.+smmmu
(PID.TID 0000.0001) //     36 utt+.........................................mm++mm++....................+++++++znmm.yoowssvuyutt+
(PID.TID 0000.0001) //     35 ++++.................................+zzz..rrmmkkmmkk+...+gghn...........+++....+nmiijlsoopuww++++
(PID.TID 0000.0001) //     34 .....................................+vvy.ggqyxv+yxv+y.ccdffhim..................+nihhikkihhm+....
(PID.TID 0000.0001) //     33 +.....................................uuz---h----------aaabdefin+.................zqvddflifffw+...
(PID.TID 0000.0001) //     32 +.....................................+t----h-------------acdfgnn................+++gdffkofffm+...
(PID.TID 0000.0001) //     31 ......................................-----ad------------abddegil..............qbaafccdhqqgddm....
(PID.TID 0000.0001) //     30 .....................................f----b--b---b------------abd............zfbb--fbcdosjfddi....
(PID.TID 0000.0001) //     29 ...................................tu----e---fjg-fjg----------abdf...........eaac--abfmijaadgi....
(PID.TID 0000.0001) //     28 .................................+xfl-----------------------bdedefi.........qbaa---aemfbbaaejz....
(PID.TID 0000.0001) //     27 ................xx..............+wfgfpf--------ea--eallc---bbbccefgi...+++x.qb-----akfa---ah......
(PID.TID 0000.0001) //     26 ................xnn...........+vd---dna------a--aa--aicfna---aabdfghku.++xssuy-----bgca---ci......
(PID.TID 0000.0001) //     25 ................iiik...oo+...+ivd---doaa-bc--ilglilglf--aa---aabcghhkll...ssum+xaaacjbaabdjk......
(PID.TID 0000.0001) //     24 ..............xnheeft.kkk+...uii.aagdm----aa---------a-------bbbcdefjljjju.zummwwbbchba--abi......
(PID.TID 0000.0001) //     23 ..............xgheefp.iikw...uuw..fihi----fed---------eaaa--bbbbcdfflkjiiiq....zykccefa--abd......
(PID.TID 0000.0001) //     22 uss...........bbelffslffkk...zz.wqkeeqoheccdfa---a-----egabaabcdddegghliiiqq......xeeehheehccquss.
(PID.TID 0000.0001) //     21 bbeir........nbbcdjhqdddiiz.....wqfeelgghmedea---a-----bibbcddddddefghklnqoo........ieeflhgcccbbei
(PID.TID 0000.0001) //     20 bbder.......ldcccdgkccccidd......z.vkkktqqhegg---g----aaacddddddddefghkiiijl.........nhfa--gfcbbde
(PID.TID 0000.0001) //     19 cdaaf.......kddosggpaaaibbccx...+z+.....r+nlec---c---agaaabcddccddefikfgffff...........d---cjhcdaa
(PID.TID 0000.0001) //     22 uss...........bbelffslffkk...zz.wqkeeqoheccdfa---a-----egabaabcdddegghliiiqq......xeeehheehccquss.
(PID.TID 0000.0001) //     21 bbeir........nbbcdjhqdddiiz.....wqfeelgghmedea---a-----bibbcddddddefghklnqoo........ieeflhgcccbbei
(PID.TID 0000.0001) //     20 bbder.......ldcccdgkccccidd......z.vkkktqqhegg---g----aaacddddddddefghkiiijl.........nhfa--gfcbbde
(PID.TID 0000.0001) //     19 cdaaf.......kddosggpaaaibbccx...+z+.....r+nlec---c---agaaabcddccddefikfgffff...........d---cjhcdaa
(PID.TID 0000.0001) //     18 d---d.......kglggvliaaaibbcaaeaiv++...qqzolhecccfcccfdgkaabcdfccdeeikgfgffdd+..........d---djhd---
(PID.TID 0000.0001) //     17 c---c.......l.feewlfaaaoaa----aiv.....qqnllslmlofmlofcdbaacceffffhhligfigeddj.........hd---ckhc---
(PID.TID 0000.0001) //     16 ba--c......tn.ddgnlfdaaqa-----lv.......vnllvllnwvlnwv--accivomfffhilhgfffeddjf........re--aeigba--
(PID.TID 0000.0001) //     15 b--dpz....+ll.ccdfhmdddlc----av.........otsxoomv-omv---abccddfihgijkhgfffeejfff......+fd---ckfb--d
(PID.TID 0000.0001) //     14 c--mcl....weeqbaafilkfend--eagy.........hhstofft-fft----aacdheefijkmjhhjijiffff.....zlfdaaadlfc--m
(PID.TID 0000.0001) //     13 cclbbg....nccobaaiddgkffqrqeaal.........eeutqfft-fft------aaceeffhijlkjhhigfffq....+jgfodccflhcclb
(PID.TID 0000.0001) //     12 hgaaacw+iiicclemhdddfliigfdcaabfaaaz....ccsurqpc-qpc--------abcifffikiiihhggff.....kbbbdfffglhhgaa
(PID.TID 0000.0001) //     11 gcaaacbbifccennhbbdefnihgfdccaaaa----..dcccnt.nca.ncab-------aabcdfilhggjiggff....l---abcefjlkgcaa
(PID.TID 0000.0001) //     10 fcaaccbdaacfrllfbbdegkmmljhfdddba----d.dcccfx.nyr.nyrebaba----abcdgilhfeegijgi..+w--aa-abcfilkfcaa
(PID.TID 0000.0001) //      9 ffcdcccaaaoqsolfdeehikihhlllgfedcccccdmdcccf.vyfavyfaaaaaaaa--abdehmjhfeeefglv.++w-----abcdfklffcd
(PID.TID 0000.0001) //      8 iffjklcaafddffeeccvznkfffhhhlkjifgjkkfeeddfsyvcaavcaaaaaaccdcccdfgjligedbbceg+.++xffn--cfddefliffj
(PID.TID 0000.0001) //      7 mqnnbbkkf--bmbaabbgtykfddeffeeddccdfhlffeelfbaaaaaaaaaacddeghgjgjlligeddaaabedfiiiiiisvkfkecchmqnn
(PID.TID 0000.0001) //      6 ca-------------aabcelttdddedddddccccdfkkiiffbaaaaaaaabcdgimmkmefecaaabbbaaabbdfiiiiispmmregifcca--
(PID.TID 0000.0001) //      5 -------a-------aaccehhhiddeddddddcccdfiikomodddefddefffmlmigedccaaaaaaaababbbdfiijsqgeccccbaa-----
(PID.TID 0000.0001) //      4 -ahebaabbbbbeihffgijiiiijpywnnpokkomkiiijmmmolkomlkommmgffeeedccaaaaaabbcccefhmz..yjgeccccbaa--ahe
(PID.TID 0000.0001) //      3 ffhhrpjiiwyy............................yxotmjjjjjjjjgfeeeeeeddeffffheddeghjkyy..yqjgeddccdbbgffhh
(PID.TID 0000.0001) //      2 ............................................zyxxmyxxmgfeeefefgimnpwwwy..+zyy.....yyyyoiiihhz+.....
(PID.TID 0000.0001) //      1 ..................................................................................................
(PID.TID 0000.0001) //      0 qlloqz+.++++zzz++++++......................................................................+++qllo
(PID.TID 0000.0001) //     -1 slloorzzzzzzzzz+...++.........................................................yxxz........+zvusllo
(PID.TID 0000.0001) // =======================================================
(PID.TID 0000.0001) // END OF FIELD                                          =
(PID.TID 0000.0001) // =======================================================
(PID.TID 0000.0001) 
(PID.TID 0000.0001) // =======================================================
(PID.TID 0000.0001) // Field Model Ro_surf (ini_masks_etc) at iteration          1
(PID.TID 0000.0001) // CMIN =          1.000000000000000E+32
(PID.TID 0000.0001) // CMAX =         -1.000000000000000E+32
(PID.TID 0000.0001) // CINT =          0.000000000000000E+00
(PID.TID 0000.0001) // SYMBOLS (CMIN->CMAX): -abcdefghijklmnopqrstuvwxyz+
(PID.TID 0000.0001) //                  0.0: .
(PID.TID 0000.0001) // RANGE I (Lo:Hi:Step):(  -1:  92:   1)
(PID.TID 0000.0001) // RANGE J (Lo:Hi:Step):(  42:  -1:  -1)
(PID.TID 0000.0001) // RANGE K (Lo:Hi:Step):(   1:   1:   1)
(PID.TID 0000.0001) // =======================================================
(PID.TID 0000.0001) // =======================================================
(PID.TID 0000.0001) // END OF FIELD                                          =
(PID.TID 0000.0001) // =======================================================
(PID.TID 0000.0001) 
(PID.TID 0000.0001) // =======================================================
(PID.TID 0000.0001) // Field hFacC at iteration          1
(PID.TID 0000.0001) // CMIN =          1.000000000000000E+00
(PID.TID 0000.0001) // CMAX =          1.000000000000000E+00
(PID.TID 0000.0001) // CINT =          0.000000000000000E+00
(PID.TID 0000.0001) // SYMBOLS (CMIN->CMAX): -abcdefghijklmnopqrstuvwxyz+
(PID.TID 0000.0001) //                  0.0: .
(PID.TID 0000.0001) // RANGE I (Lo:Hi:Step):(  -1:  92:   1)
(PID.TID 0000.0001) // RANGE J (Lo:Hi:Step):(  42:  -1:  -1)
(PID.TID 0000.0001) // RANGE K (Lo:Hi:Step):(   1:   1:   1)
(PID.TID 0000.0001) // =======================================================
(PID.TID 0000.0001) // =======================================================
(PID.TID 0000.0001) // END OF FIELD                                          =
(PID.TID 0000.0001) // =======================================================
(PID.TID 0000.0001) 
(PID.TID 0000.0001) // =======================================================
(PID.TID 0000.0001) // Field hFacW at iteration          1
(PID.TID 0000.0001) // CMIN =          1.000000000000000E+00
(PID.TID 0000.0001) // CMAX =          1.000000000000000E+00
(PID.TID 0000.0001) // CINT =          0.000000000000000E+00
(PID.TID 0000.0001) // SYMBOLS (CMIN->CMAX): -abcdefghijklmnopqrstuvwxyz+
(PID.TID 0000.0001) //                  0.0: .
(PID.TID 0000.0001) // RANGE I (Lo:Hi:Step):(  -1:  92:   1)
(PID.TID 0000.0001) // RANGE J (Lo:Hi:Step):(  42:  -1:  -1)
(PID.TID 0000.0001) // RANGE K (Lo:Hi:Step):(   1:   1:   1)
(PID.TID 0000.0001) // =======================================================
(PID.TID 0000.0001) // =======================================================
(PID.TID 0000.0001) // END OF FIELD                                          =
(PID.TID 0000.0001) // =======================================================
(PID.TID 0000.0001) 
(PID.TID 0000.0001) // =======================================================
(PID.TID 0000.0001) // Field hFacS at iteration          1
(PID.TID 0000.0001) // CMIN =          1.000000000000000E+00
(PID.TID 0000.0001) // CMAX =          1.000000000000000E+00
(PID.TID 0000.0001) // CINT =          0.000000000000000E+00
(PID.TID 0000.0001) // SYMBOLS (CMIN->CMAX): -abcdefghijklmnopqrstuvwxyz+
(PID.TID 0000.0001) //                  0.0: .
(PID.TID 0000.0001) // RANGE I (Lo:Hi:Step):(  -1:  92:   1)
(PID.TID 0000.0001) // RANGE J (Lo:Hi:Step):(  42:  -1:  -1)
(PID.TID 0000.0001) // RANGE K (Lo:Hi:Step):(   1:   1:   1)
(PID.TID 0000.0001) // =======================================================
(PID.TID 0000.0001) // =======================================================
(PID.TID 0000.0001) // END OF FIELD                                          =
(PID.TID 0000.0001) // =======================================================
(PID.TID 0000.0001) 
(PID.TID 0000.0001) %MON fCori_max                    =   1.4265546244797E-04
(PID.TID 0000.0001) %MON fCori_min                    =  -1.4265546244797E-04
(PID.TID 0000.0001) %MON fCori_mean                   =   4.7801269115805E-19
(PID.TID 0000.0001) %MON fCori_sd                     =   9.6599226301546E-05
(PID.TID 0000.0001) %MON fCoriG_max                   =   1.4151032568025E-04
(PID.TID 0000.0001) %MON fCoriG_min                   =  -1.4362679550910E-04
(PID.TID 0000.0001) %MON fCoriG_mean                  =  -3.5906698877273E-06
(PID.TID 0000.0001) %MON fCoriG_sd                    =   9.6548915696246E-05
(PID.TID 0000.0001) %MON fCoriCos_max                 =   1.4575362704741E-04
(PID.TID 0000.0001) %MON fCoriCos_min                 =   3.0322354601388E-05
(PID.TID 0000.0001) %MON fCoriCos_mean                =   1.0288600773633E-04
(PID.TID 0000.0001) %MON fCoriCos_sd                  =   3.6784304327266E-05
(PID.TID 0000.0001) INI_CG2D: CG2D normalisation factor =  6.5682677425711703E-05
(PID.TID 0000.0001) 
(PID.TID 0000.0001)  MDS_READ_FIELD: opening global file: lev_t.bin
(PID.TID 0000.0001)  MDS_READ_FIELD: opening global file: lev_s.bin
(PID.TID 0000.0001) Start initial hydrostatic pressure computation
(PID.TID 0000.0001) Pressure is predetermined for buoyancyRelation OCEANIC
(PID.TID 0000.0001) 
(PID.TID 0000.0001)  MDS_READ_FIELD: opening global file: trenberth_taux.bin
(PID.TID 0000.0001)  MDS_READ_FIELD: opening global file: trenberth_tauy.bin
(PID.TID 0000.0001)  MDS_READ_FIELD: opening global file: ncep_qnet.bin
(PID.TID 0000.0001)  MDS_READ_FIELD: opening global file: lev_sst.bin
(PID.TID 0000.0001)  MDS_READ_FIELD: opening global file: lev_sss.bin
(PID.TID 0000.0001) // =======================================================
(PID.TID 0000.0001) // Begin MONITOR dynamic field statistics
(PID.TID 0000.0001) // =======================================================
(PID.TID 0000.0001) %MON time_tsnumber                =                     0
(PID.TID 0000.0001) %MON time_secondsf                =   0.0000000000000E+00
(PID.TID 0000.0001) %MON dynstat_eta_max              =   0.0000000000000E+00
(PID.TID 0000.0001) %MON dynstat_eta_min              =   0.0000000000000E+00
(PID.TID 0000.0001) %MON dynstat_eta_mean             =   0.0000000000000E+00
(PID.TID 0000.0001) %MON dynstat_eta_sd               =   0.0000000000000E+00
(PID.TID 0000.0001) %MON dynstat_eta_del2             =   0.0000000000000E+00
(PID.TID 0000.0001) %MON dynstat_uvel_max             =   0.0000000000000E+00
(PID.TID 0000.0001) %MON dynstat_uvel_min             =   0.0000000000000E+00
(PID.TID 0000.0001) %MON dynstat_uvel_mean            =   0.0000000000000E+00
(PID.TID 0000.0001) %MON dynstat_uvel_sd              =   0.0000000000000E+00
(PID.TID 0000.0001) %MON dynstat_uvel_del2            =   0.0000000000000E+00
(PID.TID 0000.0001) %MON dynstat_vvel_max             =   0.0000000000000E+00
(PID.TID 0000.0001) %MON dynstat_vvel_min             =   0.0000000000000E+00
(PID.TID 0000.0001) %MON dynstat_vvel_mean            =   0.0000000000000E+00
(PID.TID 0000.0001) %MON dynstat_vvel_sd              =   0.0000000000000E+00
(PID.TID 0000.0001) %MON dynstat_vvel_del2            =   0.0000000000000E+00
(PID.TID 0000.0001) %MON dynstat_wvel_max             =   0.0000000000000E+00
(PID.TID 0000.0001) %MON dynstat_wvel_min             =   0.0000000000000E+00
(PID.TID 0000.0001) %MON dynstat_wvel_mean            =   0.0000000000000E+00
(PID.TID 0000.0001) %MON dynstat_wvel_sd              =   0.0000000000000E+00
(PID.TID 0000.0001) %MON dynstat_wvel_del2            =   0.0000000000000E+00
(PID.TID 0000.0001) %MON dynstat_theta_max            =   2.9733388900757E+01
(PID.TID 0000.0001) %MON dynstat_theta_min            =  -1.9000000000000E+00
(PID.TID 0000.0001) %MON dynstat_theta_mean           =   3.6197074666132E+00
(PID.TID 0000.0001) %MON dynstat_theta_sd             =   4.4174614518570E+00
(PID.TID 0000.0001) %MON dynstat_theta_del2           =   1.5097301766230E-01
(PID.TID 0000.0001) %MON dynstat_salt_max             =   3.7475627899170E+01
(PID.TID 0000.0001) %MON dynstat_salt_min             =   2.9752769470215E+01
(PID.TID 0000.0001) %MON dynstat_salt_mean            =   3.4718006161478E+01
(PID.TID 0000.0001) %MON dynstat_salt_sd              =   2.9628819587991E-01
(PID.TID 0000.0001) %MON dynstat_salt_del2            =   2.6251884861846E-02
(PID.TID 0000.0001) %MON extforcing_qnet_max          =   4.4161361694336E+02
(PID.TID 0000.0001) %MON extforcing_qnet_min          =  -1.8132531738281E+02
(PID.TID 0000.0001) %MON extforcing_qnet_mean         =  -1.6512526001044E+01
(PID.TID 0000.0001) %MON extforcing_qnet_sd           =   1.0987288293460E+02
(PID.TID 0000.0001) %MON extforcing_qnet_del2         =   9.6689454498868E+00
(PID.TID 0000.0001) %MON extforcing_qsw_max           =   0.0000000000000E+00
(PID.TID 0000.0001) %MON extforcing_qsw_min           =   0.0000000000000E+00
(PID.TID 0000.0001) %MON extforcing_qsw_mean          =   0.0000000000000E+00
(PID.TID 0000.0001) %MON extforcing_qsw_sd            =   0.0000000000000E+00
(PID.TID 0000.0001) %MON extforcing_qsw_del2          =   0.0000000000000E+00
(PID.TID 0000.0001) %MON extforcing_empmr_max         =   0.0000000000000E+00
(PID.TID 0000.0001) %MON extforcing_empmr_min         =   0.0000000000000E+00
(PID.TID 0000.0001) %MON extforcing_empmr_mean        =   0.0000000000000E+00
(PID.TID 0000.0001) %MON extforcing_empmr_sd          =   0.0000000000000E+00
(PID.TID 0000.0001) %MON extforcing_empmr_del2        =   0.0000000000000E+00
(PID.TID 0000.0001) %MON advcfl_uvel_max              =   0.0000000000000E+00
(PID.TID 0000.0001) %MON advcfl_vvel_max              =   0.0000000000000E+00
(PID.TID 0000.0001) %MON advcfl_wvel_max              =   0.0000000000000E+00
(PID.TID 0000.0001) %MON advcfl_W_hf_max              =   0.0000000000000E+00
(PID.TID 0000.0001) %MON pe_b_mean                    =   0.0000000000000E+00
(PID.TID 0000.0001) %MON ke_max                       =   0.0000000000000E+00
(PID.TID 0000.0001) %MON ke_mean                      =   0.0000000000000E+00
(PID.TID 0000.0001) %MON ke_vol                       =   1.3226782436722E+18
(PID.TID 0000.0001) %MON vort_r_min                   =   0.0000000000000E+00
(PID.TID 0000.0001) %MON vort_r_max                   =   0.0000000000000E+00
(PID.TID 0000.0001) %MON vort_a_mean                  =  -2.5274807396950E-05
(PID.TID 0000.0001) %MON vort_a_sd                    =   7.3604350271442E-05
(PID.TID 0000.0001) %MON vort_p_mean                  =  -3.1845655798840E-05
(PID.TID 0000.0001) %MON vort_p_sd                    =   1.3162570071704E-04
(PID.TID 0000.0001) %MON surfExpan_theta_mean         =   0.0000000000000E+00
(PID.TID 0000.0001) %MON surfExpan_salt_mean          =   0.0000000000000E+00
(PID.TID 0000.0001) // =======================================================
(PID.TID 0000.0001) // End MONITOR dynamic field statistics
(PID.TID 0000.0001) // =======================================================
S/R EXTERNAL_FIELDS_LOAD: Reading new data:   12    1         0  0.000000000000E+00
(PID.TID 0000.0001)  MDS_READ_FIELD: opening global file: trenberth_taux.bin
(PID.TID 0000.0001)  MDS_READ_FIELD: opening global file: trenberth_taux.bin
(PID.TID 0000.0001)  MDS_READ_FIELD: opening global file: trenberth_tauy.bin
(PID.TID 0000.0001)  MDS_READ_FIELD: opening global file: trenberth_tauy.bin
(PID.TID 0000.0001)  MDS_READ_FIELD: opening global file: ncep_qnet.bin
(PID.TID 0000.0001)  MDS_READ_FIELD: opening global file: ncep_qnet.bin
(PID.TID 0000.0001)  MDS_READ_FIELD: opening global file: lev_sst.bin
(PID.TID 0000.0001)  MDS_READ_FIELD: opening global file: lev_sst.bin
(PID.TID 0000.0001)  MDS_READ_FIELD: opening global file: lev_sss.bin
(PID.TID 0000.0001)  MDS_READ_FIELD: opening global file: lev_sss.bin
time,SST,SSS,fu,fv,Q,E-P,i0,i1,a,b =   0.0000E+00  2.4878E+01  3.5166E+01 -1.0994E-02  2.9853E-02 -6.4581E+01  0.0000E+00    12     1  5.0000E-01  5.0000E-01
time,fu0,fu1,fu =   0.0000E+00 -1.3840E-02 -8.1474E-03 -1.0994E-02  5.000000000000000E-01  5.000000000000000E-01
(PID.TID 0000.0001)  MDS_READ_FIELD: opening file: xx_hfluxm.0000000000.001.001.data
(PID.TID 0000.0001)  MDS_READ_FIELD: opening file: xx_hfluxm.0000000000.002.001.data
(PID.TID 0000.0001)  MDS_READ_FIELD: opening file: xx_hfluxm.0000000000.001.002.data
(PID.TID 0000.0001)  MDS_READ_FIELD: opening file: xx_hfluxm.0000000000.002.002.data
 cg2d: Sum(rhs),rhsMax =   4.21884749357559E-15  2.54952604282385E+00
(PID.TID 0000.0001)                    cg2d_init_res =    6.15811885707761E+00
(PID.TID 0000.0001)                       cg2d_iters =   184
(PID.TID 0000.0001)                         cg2d_res =    7.57385549925189E-20
(PID.TID 0000.0001) // =======================================================
(PID.TID 0000.0001) // Begin MONITOR dynamic field statistics
(PID.TID 0000.0001) // =======================================================
(PID.TID 0000.0001) %MON time_tsnumber                =                     1
(PID.TID 0000.0001) %MON time_secondsf                =   8.6400000000000E+04
(PID.TID 0000.0001) %MON dynstat_eta_max              =   6.5972348670443E-01
(PID.TID 0000.0001) %MON dynstat_eta_min              =  -8.0908516975824E-01
(PID.TID 0000.0001) %MON dynstat_eta_mean             =  -5.6149424932983E-17
(PID.TID 0000.0001) %MON dynstat_eta_sd               =   2.5986233252826E-01
(PID.TID 0000.0001) %MON dynstat_eta_del2             =   2.5279734204494E-02
(PID.TID 0000.0001) %MON dynstat_uvel_max             =   1.5154475259840E-02
(PID.TID 0000.0001) %MON dynstat_uvel_min             =  -1.6711313941993E-02
(PID.TID 0000.0001) %MON dynstat_uvel_mean            =  -5.1438984368889E-04
(PID.TID 0000.0001) %MON dynstat_uvel_sd              =   1.2645121070782E-03
(PID.TID 0000.0001) %MON dynstat_uvel_del2            =   5.5987941427477E-04
(PID.TID 0000.0001) %MON dynstat_vvel_max             =   1.8058285555769E-02
(PID.TID 0000.0001) %MON dynstat_vvel_min             =  -2.1372750497760E-02
(PID.TID 0000.0001) %MON dynstat_vvel_mean            =   7.2942825208714E-04
(PID.TID 0000.0001) %MON dynstat_vvel_sd              =   2.4742343056407E-03
(PID.TID 0000.0001) %MON dynstat_vvel_del2            =   6.3979493995627E-04
(PID.TID 0000.0001) %MON dynstat_wvel_max             =   6.2722463559607E-05
(PID.TID 0000.0001) %MON dynstat_wvel_min             =  -5.6747548601663E-05
(PID.TID 0000.0001) %MON dynstat_wvel_mean            =   1.9523908758241E-22
(PID.TID 0000.0001) %MON dynstat_wvel_sd              =   7.1431501853856E-06
(PID.TID 0000.0001) %MON dynstat_wvel_del2            =   2.9250853968744E-06
(PID.TID 0000.0001) %MON dynstat_theta_max            =   2.9751666093989E+01
(PID.TID 0000.0001) %MON dynstat_theta_min            =  -1.9081160967564E+00
(PID.TID 0000.0001) %MON dynstat_theta_mean           =   3.6197985269666E+00
(PID.TID 0000.0001) %MON dynstat_theta_sd             =   4.4172678280014E+00
(PID.TID 0000.0001) %MON dynstat_theta_del2           =   1.5185103559362E-01
(PID.TID 0000.0001) %MON dynstat_salt_max             =   3.7466326609724E+01
(PID.TID 0000.0001) %MON dynstat_salt_min             =   2.9755612723569E+01
(PID.TID 0000.0001) %MON dynstat_salt_mean            =   3.4718005931613E+01
(PID.TID 0000.0001) %MON dynstat_salt_sd              =   2.9614519425399E-01
(PID.TID 0000.0001) %MON dynstat_salt_del2            =   2.6412127805909E-02
(PID.TID 0000.0001) %MON extforcing_qnet_max          =   4.2589080810547E+02
(PID.TID 0000.0001) %MON extforcing_qnet_min          =  -1.8702698516846E+02
(PID.TID 0000.0001) %MON extforcing_qnet_mean         =  -1.6700205338390E+01
(PID.TID 0000.0001) %MON extforcing_qnet_sd           =   1.1285666794876E+02
(PID.TID 0000.0001) %MON extforcing_qnet_del2         =   9.4920800031777E+00
(PID.TID 0000.0001) %MON extforcing_qsw_max           =   0.0000000000000E+00
(PID.TID 0000.0001) %MON extforcing_qsw_min           =   0.0000000000000E+00
(PID.TID 0000.0001) %MON extforcing_qsw_mean          =   0.0000000000000E+00
(PID.TID 0000.0001) %MON extforcing_qsw_sd            =   0.0000000000000E+00
(PID.TID 0000.0001) %MON extforcing_qsw_del2          =   0.0000000000000E+00
(PID.TID 0000.0001) %MON extforcing_empmr_max         =   0.0000000000000E+00
(PID.TID 0000.0001) %MON extforcing_empmr_min         =   0.0000000000000E+00
(PID.TID 0000.0001) %MON extforcing_empmr_mean        =   0.0000000000000E+00
(PID.TID 0000.0001) %MON extforcing_empmr_sd          =   0.0000000000000E+00
(PID.TID 0000.0001) %MON extforcing_empmr_del2        =   0.0000000000000E+00
(PID.TID 0000.0001) %MON advcfl_uvel_max              =   6.2569565162094E-03
(PID.TID 0000.0001) %MON advcfl_vvel_max              =   4.1523826440075E-03
(PID.TID 0000.0001) %MON advcfl_wvel_max              =   3.2363406790329E-02
(PID.TID 0000.0001) %MON advcfl_W_hf_max              =   2.5720630781181E-02
(PID.TID 0000.0001) %MON pe_b_mean                    =   8.6410767966924E-05
(PID.TID 0000.0001) %MON ke_max                       =   1.9819958904707E-04
(PID.TID 0000.0001) %MON ke_mean                      =   3.8338839950848E-06
(PID.TID 0000.0001) %MON ke_vol                       =   1.3226782436722E+18
(PID.TID 0000.0001) %MON vort_r_min                   =  -8.7815117231286E-08
(PID.TID 0000.0001) %MON vort_r_max                   =   6.7517135819958E-08
(PID.TID 0000.0001) %MON vort_a_mean                  =  -2.5274807339434E-05
(PID.TID 0000.0001) %MON vort_a_sd                    =   7.3604247005212E-05
(PID.TID 0000.0001) %MON vort_p_mean                  =  -3.1845655726371E-05
(PID.TID 0000.0001) %MON vort_p_sd                    =   1.3162541790063E-04
(PID.TID 0000.0001) %MON surfExpan_theta_mean         =   2.1615117376547E-05
(PID.TID 0000.0001) %MON surfExpan_salt_mean          =   1.4995815232063E-06
(PID.TID 0000.0001) // =======================================================
(PID.TID 0000.0001) // End MONITOR dynamic field statistics
(PID.TID 0000.0001) // =======================================================
time,SST,SSS,fu,fv,Q,E-P,i0,i1,a,b =   8.6400E+04  2.4948E+01  3.5159E+01 -1.0804E-02  2.9462E-02 -6.4589E+01  0.0000E+00    12     1  5.3333E-01  4.6667E-01
time,fu0,fu1,fu =   8.6400E+04 -1.3840E-02 -8.1474E-03 -1.0804E-02  5.333333333333333E-01  4.666666666666667E-01
 cg2d: Sum(rhs),rhsMax =   3.33066907387547E-15  2.62443215722193E+00
(PID.TID 0000.0001)                    cg2d_init_res =    5.65211526467724E-01
(PID.TID 0000.0001)                       cg2d_iters =   181
(PID.TID 0000.0001)                         cg2d_res =    8.44315565303590E-20
(PID.TID 0000.0001) // =======================================================
(PID.TID 0000.0001) // Begin MONITOR dynamic field statistics
(PID.TID 0000.0001) // =======================================================
(PID.TID 0000.0001) %MON time_tsnumber                =                     2
(PID.TID 0000.0001) %MON time_secondsf                =   1.7280000000000E+05
(PID.TID 0000.0001) %MON dynstat_eta_max              =   8.9917176839650E-01
(PID.TID 0000.0001) %MON dynstat_eta_min              =  -1.3164604027299E+00
(PID.TID 0000.0001) %MON dynstat_eta_mean             =   4.4149749443273E-18
(PID.TID 0000.0001) %MON dynstat_eta_sd               =   4.4131045416725E-01
(PID.TID 0000.0001) %MON dynstat_eta_del2             =   2.5861520320030E-02
(PID.TID 0000.0001) %MON dynstat_uvel_max             =   3.1916634593651E-02
(PID.TID 0000.0001) %MON dynstat_uvel_min             =  -3.2935814784973E-02
(PID.TID 0000.0001) %MON dynstat_uvel_mean            =  -8.4207078924940E-04
(PID.TID 0000.0001) %MON dynstat_uvel_sd              =   2.3995027273685E-03
(PID.TID 0000.0001) %MON dynstat_uvel_del2            =   1.0339715228866E-03
(PID.TID 0000.0001) %MON dynstat_vvel_max             =   3.5896279709003E-02
(PID.TID 0000.0001) %MON dynstat_vvel_min             =  -4.3465559683010E-02
(PID.TID 0000.0001) %MON dynstat_vvel_mean            =   9.2214608421792E-04
(PID.TID 0000.0001) %MON dynstat_vvel_sd              =   4.2145196314093E-03
(PID.TID 0000.0001) %MON dynstat_vvel_del2            =   1.2102096843289E-03
(PID.TID 0000.0001) %MON dynstat_wvel_max             =   1.0735117900407E-04
(PID.TID 0000.0001) %MON dynstat_wvel_min             =  -9.7633782506253E-05
(PID.TID 0000.0001) %MON dynstat_wvel_mean            =  -2.3487409032471E-22
(PID.TID 0000.0001) %MON dynstat_wvel_sd              =   1.2021948928984E-05
(PID.TID 0000.0001) %MON dynstat_wvel_del2            =   5.0952967478424E-06
(PID.TID 0000.0001) %MON dynstat_theta_max            =   2.9755444679809E+01
(PID.TID 0000.0001) %MON dynstat_theta_min            =  -1.9082276088968E+00
(PID.TID 0000.0001) %MON dynstat_theta_mean           =   3.6191100315849E+00
(PID.TID 0000.0001) %MON dynstat_theta_sd             =   4.4154696499060E+00
(PID.TID 0000.0001) %MON dynstat_theta_del2           =   1.5128054588425E-01
(PID.TID 0000.0001) %MON dynstat_salt_max             =   3.7457095125254E+01
(PID.TID 0000.0001) %MON dynstat_salt_min             =   2.9758681851086E+01
(PID.TID 0000.0001) %MON dynstat_salt_mean            =   3.4717951692494E+01
(PID.TID 0000.0001) %MON dynstat_salt_sd              =   2.9605725116869E-01
(PID.TID 0000.0001) %MON dynstat_salt_del2            =   2.6506856568197E-02
(PID.TID 0000.0001) %MON extforcing_qnet_max          =   4.2693899536133E+02
(PID.TID 0000.0001) %MON extforcing_qnet_min          =  -1.8655982259115E+02
(PID.TID 0000.0001) %MON extforcing_qnet_mean         =  -1.6687693382567E+01
(PID.TID 0000.0001) %MON extforcing_qnet_sd           =   1.1263946608433E+02
(PID.TID 0000.0001) %MON extforcing_qnet_del2         =   9.4914987500819E+00
(PID.TID 0000.0001) %MON extforcing_qsw_max           =   0.0000000000000E+00
(PID.TID 0000.0001) %MON extforcing_qsw_min           =   0.0000000000000E+00
(PID.TID 0000.0001) %MON extforcing_qsw_mean          =   0.0000000000000E+00
(PID.TID 0000.0001) %MON extforcing_qsw_sd            =   0.0000000000000E+00
(PID.TID 0000.0001) %MON extforcing_qsw_del2          =   0.0000000000000E+00
(PID.TID 0000.0001) %MON extforcing_empmr_max         =   0.0000000000000E+00
(PID.TID 0000.0001) %MON extforcing_empmr_min         =   0.0000000000000E+00
(PID.TID 0000.0001) %MON extforcing_empmr_mean        =   0.0000000000000E+00
(PID.TID 0000.0001) %MON extforcing_empmr_sd          =   0.0000000000000E+00
(PID.TID 0000.0001) %MON extforcing_empmr_del2        =   0.0000000000000E+00
(PID.TID 0000.0001) %MON advcfl_uvel_max              =   1.0979527063589E-02
(PID.TID 0000.0001) %MON advcfl_vvel_max              =   8.4446611426415E-03
(PID.TID 0000.0001) %MON advcfl_wvel_max              =   3.3472802411486E-02
(PID.TID 0000.0001) %MON advcfl_W_hf_max              =   3.7952732524874E-02
(PID.TID 0000.0001) %MON pe_b_mean                    =   2.4921239060834E-04
(PID.TID 0000.0001) %MON ke_max                       =   9.0737860405372E-04
(PID.TID 0000.0001) %MON ke_mean                      =   1.1293898428779E-05
(PID.TID 0000.0001) %MON ke_vol                       =   1.3226782436722E+18
(PID.TID 0000.0001) %MON vort_r_min                   =  -1.7904769298624E-07
(PID.TID 0000.0001) %MON vort_r_max                   =   1.4657061662399E-07
(PID.TID 0000.0001) %MON vort_a_mean                  =  -2.5274807287624E-05
(PID.TID 0000.0001) %MON vort_a_sd                    =   7.3604184445158E-05
(PID.TID 0000.0001) %MON vort_p_mean                  =  -3.1845655661092E-05
(PID.TID 0000.0001) %MON vort_p_sd                    =   1.3162516013305E-04
(PID.TID 0000.0001) %MON surfExpan_theta_mean         =   1.9340011667872E-05
(PID.TID 0000.0001) %MON surfExpan_salt_mean          =   1.1418930241234E-06
(PID.TID 0000.0001) // =======================================================
(PID.TID 0000.0001) // End MONITOR dynamic field statistics
(PID.TID 0000.0001) // =======================================================
time,SST,SSS,fu,fv,Q,E-P,i0,i1,a,b =   1.7280E+05  2.5017E+01  3.5152E+01 -1.0614E-02  2.9071E-02 -6.4598E+01  0.0000E+00    12     1  5.6667E-01  4.3333E-01
time,fu0,fu1,fu =   1.7280E+05 -1.3840E-02 -8.1474E-03 -1.0614E-02  5.666666666666667E-01  4.333333333333333E-01
 cg2d: Sum(rhs),rhsMax =   3.08642000845794E-14  2.39923446840263E+00
(PID.TID 0000.0001)                    cg2d_init_res =    5.04355141028413E-01
(PID.TID 0000.0001)                       cg2d_iters =   181
(PID.TID 0000.0001)                         cg2d_res =    7.61043206880370E-20
(PID.TID 0000.0001) // =======================================================
(PID.TID 0000.0001) // Begin MONITOR dynamic field statistics
(PID.TID 0000.0001) // =======================================================
(PID.TID 0000.0001) %MON time_tsnumber                =                     3
(PID.TID 0000.0001) %MON time_secondsf                =   2.5920000000000E+05
(PID.TID 0000.0001) %MON dynstat_eta_max              =   8.9024394315371E-01
(PID.TID 0000.0001) %MON dynstat_eta_min              =  -1.5835877364695E+00
(PID.TID 0000.0001) %MON dynstat_eta_mean             =  -1.2135520872613E-16
(PID.TID 0000.0001) %MON dynstat_eta_sd               =   5.2942069728182E-01
(PID.TID 0000.0001) %MON dynstat_eta_del2             =   2.4608942868830E-02
(PID.TID 0000.0001) %MON dynstat_uvel_max             =   5.1307027923247E-02
(PID.TID 0000.0001) %MON dynstat_uvel_min             =  -4.7489633592032E-02
(PID.TID 0000.0001) %MON dynstat_uvel_mean            =  -9.3487692475349E-04
(PID.TID 0000.0001) %MON dynstat_uvel_sd              =   3.5366874973914E-03
(PID.TID 0000.0001) %MON dynstat_uvel_del2            =   1.4404686815864E-03
(PID.TID 0000.0001) %MON dynstat_vvel_max             =   5.1453193804222E-02
(PID.TID 0000.0001) %MON dynstat_vvel_min             =  -6.3855753867600E-02
(PID.TID 0000.0001) %MON dynstat_vvel_mean            =   8.1131907087336E-04
(PID.TID 0000.0001) %MON dynstat_vvel_sd              =   5.8838667228438E-03
(PID.TID 0000.0001) %MON dynstat_vvel_del2            =   1.7146761311996E-03
(PID.TID 0000.0001) %MON dynstat_wvel_max             =   1.4898197111192E-04
(PID.TID 0000.0001) %MON dynstat_wvel_min             =  -1.3134867908550E-04
(PID.TID 0000.0001) %MON dynstat_wvel_mean            =  -4.6974818064941E-23
(PID.TID 0000.0001) %MON dynstat_wvel_sd              =   1.6480212792786E-05
(PID.TID 0000.0001) %MON dynstat_wvel_del2            =   7.0167655290310E-06
(PID.TID 0000.0001) %MON dynstat_theta_max            =   2.9757803039549E+01
(PID.TID 0000.0001) %MON dynstat_theta_min            =  -1.9086094879462E+00
(PID.TID 0000.0001) %MON dynstat_theta_mean           =   3.6187958419154E+00
(PID.TID 0000.0001) %MON dynstat_theta_sd             =   4.4144319741982E+00
(PID.TID 0000.0001) %MON dynstat_theta_del2           =   1.4998173667609E-01
(PID.TID 0000.0001) %MON dynstat_salt_max             =   3.7449064079407E+01
(PID.TID 0000.0001) %MON dynstat_salt_min             =   2.9759914492290E+01
(PID.TID 0000.0001) %MON dynstat_salt_mean            =   3.4717930629131E+01
(PID.TID 0000.0001) %MON dynstat_salt_sd              =   2.9602201048654E-01
(PID.TID 0000.0001) %MON dynstat_salt_del2            =   2.6424992944774E-02
(PID.TID 0000.0001) %MON extforcing_qnet_max          =   4.2798718261719E+02
(PID.TID 0000.0001) %MON extforcing_qnet_min          =  -1.8609266001383E+02
(PID.TID 0000.0001) %MON extforcing_qnet_mean         =  -1.6675181426744E+01
(PID.TID 0000.0001) %MON extforcing_qnet_sd           =   1.1242481361476E+02
(PID.TID 0000.0001) %MON extforcing_qnet_del2         =   9.4925698128427E+00
(PID.TID 0000.0001) %MON extforcing_qsw_max           =   0.0000000000000E+00
(PID.TID 0000.0001) %MON extforcing_qsw_min           =   0.0000000000000E+00
(PID.TID 0000.0001) %MON extforcing_qsw_mean          =   0.0000000000000E+00
(PID.TID 0000.0001) %MON extforcing_qsw_sd            =   0.0000000000000E+00
(PID.TID 0000.0001) %MON extforcing_qsw_del2          =   0.0000000000000E+00
(PID.TID 0000.0001) %MON extforcing_empmr_max         =   0.0000000000000E+00
(PID.TID 0000.0001) %MON extforcing_empmr_min         =   0.0000000000000E+00
(PID.TID 0000.0001) %MON extforcing_empmr_mean        =   0.0000000000000E+00
(PID.TID 0000.0001) %MON extforcing_empmr_sd          =   0.0000000000000E+00
(PID.TID 0000.0001) %MON extforcing_empmr_del2        =   0.0000000000000E+00
(PID.TID 0000.0001) %MON advcfl_uvel_max              =   1.6782987851525E-02
(PID.TID 0000.0001) %MON advcfl_vvel_max              =   1.2406148853309E-02
(PID.TID 0000.0001) %MON advcfl_wvel_max              =   4.6820545687811E-02
(PID.TID 0000.0001) %MON advcfl_W_hf_max              =   5.2981143804629E-02
(PID.TID 0000.0001) %MON pe_b_mean                    =   3.5866007219008E-04
(PID.TID 0000.0001) %MON ke_max                       =   2.1519004992311E-03
(PID.TID 0000.0001) %MON ke_mean                      =   2.1917612279689E-05
(PID.TID 0000.0001) %MON ke_vol                       =   1.3226782436722E+18
(PID.TID 0000.0001) %MON vort_r_min                   =  -2.4558239368695E-07
(PID.TID 0000.0001) %MON vort_r_max                   =   2.0671460769412E-07
(PID.TID 0000.0001) %MON vort_a_mean                  =  -2.5274807204944E-05
(PID.TID 0000.0001) %MON vort_a_sd                    =   7.3604167620339E-05
(PID.TID 0000.0001) %MON vort_p_mean                  =  -3.1845655556917E-05
(PID.TID 0000.0001) %MON vort_p_sd                    =   1.3162500011798E-04
(PID.TID 0000.0001) %MON surfExpan_theta_mean         =   1.0509344991698E-05
(PID.TID 0000.0001) %MON surfExpan_salt_mean          =   4.3308468473858E-07
(PID.TID 0000.0001) // =======================================================
(PID.TID 0000.0001) // End MONITOR dynamic field statistics
(PID.TID 0000.0001) // =======================================================
time,SST,SSS,fu,fv,Q,E-P,i0,i1,a,b =   2.5920E+05  2.5087E+01  3.5144E+01 -1.0425E-02  2.8680E-02 -6.4606E+01  0.0000E+00    12     1  6.0000E-01  4.0000E-01
time,fu0,fu1,fu =   2.5920E+05 -1.3840E-02 -8.1474E-03 -1.0425E-02  6.000000000000000E-01  4.000000000000000E-01
 cg2d: Sum(rhs),rhsMax =  -2.97539770599542E-14  2.21574359151332E+00
(PID.TID 0000.0001)                    cg2d_init_res =    4.23689952061498E-01
(PID.TID 0000.0001)                       cg2d_iters =   179
(PID.TID 0000.0001)                         cg2d_res =    8.77229042028315E-20
(PID.TID 0000.0001) // =======================================================
(PID.TID 0000.0001) // Begin MONITOR dynamic field statistics
(PID.TID 0000.0001) // =======================================================
(PID.TID 0000.0001) %MON time_tsnumber                =                     4
(PID.TID 0000.0001) %MON time_secondsf                =   3.4560000000000E+05
(PID.TID 0000.0001) %MON dynstat_eta_max              =   8.7040758787289E-01
(PID.TID 0000.0001) %MON dynstat_eta_min              =  -1.6017051893095E+00
(PID.TID 0000.0001) %MON dynstat_eta_mean             =  -3.9847978984698E-17
(PID.TID 0000.0001) %MON dynstat_eta_sd               =   5.5675037085583E-01
(PID.TID 0000.0001) %MON dynstat_eta_del2             =   2.3690918763625E-02
(PID.TID 0000.0001) %MON dynstat_uvel_max             =   7.2501510993113E-02
(PID.TID 0000.0001) %MON dynstat_uvel_min             =  -6.0532836935695E-02
(PID.TID 0000.0001) %MON dynstat_uvel_mean            =  -8.6920983521485E-04
(PID.TID 0000.0001) %MON dynstat_uvel_sd              =   4.7627728847422E-03
(PID.TID 0000.0001) %MON dynstat_uvel_del2            =   1.7893602525106E-03
(PID.TID 0000.0001) %MON dynstat_vvel_max             =   6.4242554034175E-02
(PID.TID 0000.0001) %MON dynstat_vvel_min             =  -8.1532287595484E-02
(PID.TID 0000.0001) %MON dynstat_vvel_mean            =   5.5579072198172E-04
(PID.TID 0000.0001) %MON dynstat_vvel_sd              =   7.4393348872402E-03
(PID.TID 0000.0001) %MON dynstat_vvel_del2            =   2.1555993236032E-03
(PID.TID 0000.0001) %MON dynstat_wvel_max             =   1.8461177028920E-04
(PID.TID 0000.0001) %MON dynstat_wvel_min             =  -1.5773174955170E-04
(PID.TID 0000.0001) %MON dynstat_wvel_mean            =  -3.2882372645459E-22
(PID.TID 0000.0001) %MON dynstat_wvel_sd              =   2.0323507212367E-05
(PID.TID 0000.0001) %MON dynstat_wvel_del2            =   8.5606596614507E-06
(PID.TID 0000.0001) %MON dynstat_theta_max            =   2.9763466125768E+01
(PID.TID 0000.0001) %MON dynstat_theta_min            =  -1.9089540901452E+00
(PID.TID 0000.0001) %MON dynstat_theta_mean           =   3.6187692902810E+00
(PID.TID 0000.0001) %MON dynstat_theta_sd             =   4.4140958558900E+00
(PID.TID 0000.0001) %MON dynstat_theta_del2           =   1.4848569781534E-01
(PID.TID 0000.0001) %MON dynstat_salt_max             =   3.7442197557573E+01
(PID.TID 0000.0001) %MON dynstat_salt_min             =   2.9759537372974E+01
(PID.TID 0000.0001) %MON dynstat_salt_mean            =   3.4717930254310E+01
(PID.TID 0000.0001) %MON dynstat_salt_sd              =   2.9598126677482E-01
(PID.TID 0000.0001) %MON dynstat_salt_del2            =   2.6343193225843E-02
(PID.TID 0000.0001) %MON extforcing_qnet_max          =   4.2903536987305E+02
(PID.TID 0000.0001) %MON extforcing_qnet_min          =  -1.8562549743652E+02
(PID.TID 0000.0001) %MON extforcing_qnet_mean         =  -1.6662669470921E+01
(PID.TID 0000.0001) %MON extforcing_qnet_sd           =   1.1221272517031E+02
(PID.TID 0000.0001) %MON extforcing_qnet_del2         =   9.4953524693249E+00
(PID.TID 0000.0001) %MON extforcing_qsw_max           =   0.0000000000000E+00
(PID.TID 0000.0001) %MON extforcing_qsw_min           =   0.0000000000000E+00
(PID.TID 0000.0001) %MON extforcing_qsw_mean          =   0.0000000000000E+00
(PID.TID 0000.0001) %MON extforcing_qsw_sd            =   0.0000000000000E+00
(PID.TID 0000.0001) %MON extforcing_qsw_del2          =   0.0000000000000E+00
(PID.TID 0000.0001) %MON extforcing_empmr_max         =   0.0000000000000E+00
(PID.TID 0000.0001) %MON extforcing_empmr_min         =   0.0000000000000E+00
(PID.TID 0000.0001) %MON extforcing_empmr_mean        =   0.0000000000000E+00
(PID.TID 0000.0001) %MON extforcing_empmr_sd          =   0.0000000000000E+00
(PID.TID 0000.0001) %MON extforcing_empmr_del2        =   0.0000000000000E+00
(PID.TID 0000.0001) %MON advcfl_uvel_max              =   2.3561582726749E-02
(PID.TID 0000.0001) %MON advcfl_vvel_max              =   1.5840415859119E-02
(PID.TID 0000.0001) %MON advcfl_wvel_max              =   5.8777694396873E-02
(PID.TID 0000.0001) %MON advcfl_W_hf_max              =   6.6511601554356E-02
(PID.TID 0000.0001) %MON pe_b_mean                    =   3.9664522476502E-04
(PID.TID 0000.0001) %MON ke_max                       =   3.8403611266099E-03
(PID.TID 0000.0001) %MON ke_mean                      =   3.5633828892941E-05
(PID.TID 0000.0001) %MON ke_vol                       =   1.3226782436722E+18
(PID.TID 0000.0001) %MON vort_r_min                   =  -2.7411951381239E-07
(PID.TID 0000.0001) %MON vort_r_max                   =   2.3268007293566E-07
(PID.TID 0000.0001) %MON vort_a_mean                  =  -2.5274807105923E-05
(PID.TID 0000.0001) %MON vort_a_sd                    =   7.3604181595525E-05
(PID.TID 0000.0001) %MON vort_p_mean                  =  -3.1845655432153E-05
(PID.TID 0000.0001) %MON vort_p_sd                    =   1.3162489185722E-04
(PID.TID 0000.0001) %MON surfExpan_theta_mean         =   2.9687877327918E-06
(PID.TID 0000.0001) %MON surfExpan_salt_mean          =  -5.8226129160142E-08
(PID.TID 0000.0001) // =======================================================
(PID.TID 0000.0001) // End MONITOR dynamic field statistics
(PID.TID 0000.0001) // =======================================================
time,SST,SSS,fu,fv,Q,E-P,i0,i1,a,b =   3.4560E+05  2.5157E+01  3.5137E+01 -1.0235E-02  2.8288E-02 -6.4615E+01  0.0000E+00    12     1  6.3333E-01  3.6667E-01
time,fu0,fu1,fu =   3.4560E+05 -1.3840E-02 -8.1474E-03 -1.0235E-02  6.333333333333333E-01  3.666666666666667E-01
 cg2d: Sum(rhs),rhsMax =  -2.66453525910038E-15  2.00995911954308E+00
(PID.TID 0000.0001)                    cg2d_init_res =    5.39517953359169E-01
(PID.TID 0000.0001)                       cg2d_iters =   180
(PID.TID 0000.0001)                         cg2d_res =    6.92265649787433E-20
(PID.TID 0000.0001) // =======================================================
(PID.TID 0000.0001) // Begin MONITOR dynamic field statistics
(PID.TID 0000.0001) // =======================================================
(PID.TID 0000.0001) %MON time_tsnumber                =                     5
(PID.TID 0000.0001) %MON time_secondsf                =   4.3200000000000E+05
(PID.TID 0000.0001) %MON dynstat_eta_max              =   8.8585342009550E-01
(PID.TID 0000.0001) %MON dynstat_eta_min              =  -1.5451316816064E+00
(PID.TID 0000.0001) %MON dynstat_eta_mean             =  -1.4490174176254E-17
(PID.TID 0000.0001) %MON dynstat_eta_sd               =   5.5557688208919E-01
(PID.TID 0000.0001) %MON dynstat_eta_del2             =   2.2752728531149E-02
(PID.TID 0000.0001) %MON dynstat_uvel_max             =   9.4483072585537E-02
(PID.TID 0000.0001) %MON dynstat_uvel_min             =  -7.1499413317025E-02
(PID.TID 0000.0001) %MON dynstat_uvel_mean            =  -7.1469718822530E-04
(PID.TID 0000.0001) %MON dynstat_uvel_sd              =   6.0913493288253E-03
(PID.TID 0000.0001) %MON dynstat_uvel_del2            =   2.0747618302553E-03
(PID.TID 0000.0001) %MON dynstat_vvel_max             =   7.5738366796598E-02
(PID.TID 0000.0001) %MON dynstat_vvel_min             =  -9.6855160443772E-02
(PID.TID 0000.0001) %MON dynstat_vvel_mean            =   2.5612468759340E-04
(PID.TID 0000.0001) %MON dynstat_vvel_sd              =   8.7639807003136E-03
(PID.TID 0000.0001) %MON dynstat_vvel_del2            =   2.5183459640962E-03
(PID.TID 0000.0001) %MON dynstat_wvel_max             =   2.1075743330808E-04
(PID.TID 0000.0001) %MON dynstat_wvel_min             =  -1.7563318523640E-04
(PID.TID 0000.0001) %MON dynstat_wvel_mean            =  -2.3487409032471E-22
(PID.TID 0000.0001) %MON dynstat_wvel_sd              =   2.3300849417980E-05
(PID.TID 0000.0001) %MON dynstat_wvel_del2            =   9.6524254863419E-06
(PID.TID 0000.0001) %MON dynstat_theta_max            =   2.9773994410393E+01
(PID.TID 0000.0001) %MON dynstat_theta_min            =  -1.9086518446780E+00
(PID.TID 0000.0001) %MON dynstat_theta_mean           =   3.6188951893505E+00
(PID.TID 0000.0001) %MON dynstat_theta_sd             =   4.4142061138291E+00
(PID.TID 0000.0001) %MON dynstat_theta_del2           =   1.4687423231425E-01
(PID.TID 0000.0001) %MON dynstat_salt_max             =   3.7436566181810E+01
(PID.TID 0000.0001) %MON dynstat_salt_min             =   2.9757949286890E+01
(PID.TID 0000.0001) %MON dynstat_salt_mean            =   3.4717937980525E+01
(PID.TID 0000.0001) %MON dynstat_salt_sd              =   2.9594006167115E-01
(PID.TID 0000.0001) %MON dynstat_salt_del2            =   2.6250144960327E-02
(PID.TID 0000.0001) %MON extforcing_qnet_max          =   4.3008355712891E+02
(PID.TID 0000.0001) %MON extforcing_qnet_min          =  -1.8515833485921E+02
(PID.TID 0000.0001) %MON extforcing_qnet_mean         =  -1.6650157515098E+01
(PID.TID 0000.0001) %MON extforcing_qnet_sd           =   1.1200321531664E+02
(PID.TID 0000.0001) %MON extforcing_qnet_del2         =   9.4991829492293E+00
(PID.TID 0000.0001) %MON extforcing_qsw_max           =   0.0000000000000E+00
(PID.TID 0000.0001) %MON extforcing_qsw_min           =   0.0000000000000E+00
(PID.TID 0000.0001) %MON extforcing_qsw_mean          =   0.0000000000000E+00
(PID.TID 0000.0001) %MON extforcing_qsw_sd            =   0.0000000000000E+00
(PID.TID 0000.0001) %MON extforcing_qsw_del2          =   0.0000000000000E+00
(PID.TID 0000.0001) %MON extforcing_empmr_max         =   0.0000000000000E+00
(PID.TID 0000.0001) %MON extforcing_empmr_min         =   0.0000000000000E+00
(PID.TID 0000.0001) %MON extforcing_empmr_mean        =   0.0000000000000E+00
(PID.TID 0000.0001) %MON extforcing_empmr_sd          =   0.0000000000000E+00
(PID.TID 0000.0001) %MON extforcing_empmr_del2        =   0.0000000000000E+00
(PID.TID 0000.0001) %MON advcfl_uvel_max              =   3.0385544802041E-02
(PID.TID 0000.0001) %MON advcfl_vvel_max              =   1.8817404304207E-02
(PID.TID 0000.0001) %MON advcfl_wvel_max              =   6.8575881563179E-02
(PID.TID 0000.0001) %MON advcfl_W_hf_max              =   7.7599023874123E-02
(PID.TID 0000.0001) %MON pe_b_mean                    =   3.9497493155857E-04
(PID.TID 0000.0001) %MON ke_max                       =   5.8655097615336E-03
(PID.TID 0000.0001) %MON ke_mean                      =   5.1600853925813E-05
(PID.TID 0000.0001) %MON ke_vol                       =   1.3226782436722E+18
(PID.TID 0000.0001) %MON vort_r_min                   =  -2.6779002608757E-07
(PID.TID 0000.0001) %MON vort_r_max                   =   2.2721814220870E-07
(PID.TID 0000.0001) %MON vort_a_mean                  =  -2.5274807021648E-05
(PID.TID 0000.0001) %MON vort_a_sd                    =   7.3604212715472E-05
(PID.TID 0000.0001) %MON vort_p_mean                  =  -3.1845655325969E-05
(PID.TID 0000.0001) %MON vort_p_sd                    =   1.3162478589724E-04
(PID.TID 0000.0001) %MON surfExpan_theta_mean         =  -1.0673311978285E-06
(PID.TID 0000.0001) %MON surfExpan_salt_mean          =  -2.6435583125013E-07
(PID.TID 0000.0001) // =======================================================
(PID.TID 0000.0001) // End MONITOR dynamic field statistics
(PID.TID 0000.0001) // =======================================================
time,SST,SSS,fu,fv,Q,E-P,i0,i1,a,b =   4.3200E+05  2.5226E+01  3.5130E+01 -1.0045E-02  2.7897E-02 -6.4623E+01  0.0000E+00    12     1  6.6667E-01  3.3333E-01
time,fu0,fu1,fu =   4.3200E+05 -1.3840E-02 -8.1474E-03 -1.0045E-02  6.666666666666666E-01  3.333333333333334E-01
 cg2d: Sum(rhs),rhsMax =  -7.99360577730113E-15  1.78612610533029E+00
(PID.TID 0000.0001)                    cg2d_init_res =    6.57838557342727E-01
(PID.TID 0000.0001)                       cg2d_iters =   180
(PID.TID 0000.0001)                         cg2d_res =    8.38891748767957E-20
(PID.TID 0000.0001) // =======================================================
(PID.TID 0000.0001) // Begin MONITOR dynamic field statistics
(PID.TID 0000.0001) // =======================================================
(PID.TID 0000.0001) %MON time_tsnumber                =                     6
(PID.TID 0000.0001) %MON time_secondsf                =   5.1840000000000E+05
(PID.TID 0000.0001) %MON dynstat_eta_max              =   1.0294101685435E+00
(PID.TID 0000.0001) %MON dynstat_eta_min              =  -1.4914570922614E+00
(PID.TID 0000.0001) %MON dynstat_eta_mean             =   3.2602891896571E-17
(PID.TID 0000.0001) %MON dynstat_eta_sd               =   5.4496582999179E-01
(PID.TID 0000.0001) %MON dynstat_eta_del2             =   2.1915459469047E-02
(PID.TID 0000.0001) %MON dynstat_uvel_max             =   1.1623116920135E-01
(PID.TID 0000.0001) %MON dynstat_uvel_min             =  -8.0063677848718E-02
(PID.TID 0000.0001) %MON dynstat_uvel_mean            =  -5.1395874541634E-04
(PID.TID 0000.0001) %MON dynstat_uvel_sd              =   7.5008040174066E-03
(PID.TID 0000.0001) %MON dynstat_uvel_del2            =   2.2985118004670E-03
(PID.TID 0000.0001) %MON dynstat_vvel_max             =   8.5511615640341E-02
(PID.TID 0000.0001) %MON dynstat_vvel_min             =  -1.0888757072960E-01
(PID.TID 0000.0001) %MON dynstat_vvel_mean            =  -1.5064509398172E-05
(PID.TID 0000.0001) %MON dynstat_vvel_sd              =   9.8042645196222E-03
(PID.TID 0000.0001) %MON dynstat_vvel_del2            =   2.7945179162936E-03
(PID.TID 0000.0001) %MON dynstat_wvel_max             =   2.2569340349001E-04
(PID.TID 0000.0001) %MON dynstat_wvel_min             =  -1.8407983870047E-04
(PID.TID 0000.0001) %MON dynstat_wvel_mean            =   3.5231113548706E-23
(PID.TID 0000.0001) %MON dynstat_wvel_sd              =   2.5302056523654E-05
(PID.TID 0000.0001) %MON dynstat_wvel_del2            =   1.0274491437161E-05
(PID.TID 0000.0001) %MON dynstat_theta_max            =   2.9786077929489E+01
(PID.TID 0000.0001) %MON dynstat_theta_min            =  -1.9083761467702E+00
(PID.TID 0000.0001) %MON dynstat_theta_mean           =   3.6190645982773E+00
(PID.TID 0000.0001) %MON dynstat_theta_sd             =   4.4144784823128E+00
(PID.TID 0000.0001) %MON dynstat_theta_del2           =   1.4521977749565E-01
(PID.TID 0000.0001) %MON dynstat_salt_max             =   3.7432061603762E+01
(PID.TID 0000.0001) %MON dynstat_salt_min             =   2.9755654122698E+01
(PID.TID 0000.0001) %MON dynstat_salt_mean            =   3.4717946471258E+01
(PID.TID 0000.0001) %MON dynstat_salt_sd              =   2.9591639109364E-01
(PID.TID 0000.0001) %MON dynstat_salt_del2            =   2.6172429662883E-02
(PID.TID 0000.0001) %MON extforcing_qnet_max          =   4.3113174438477E+02
(PID.TID 0000.0001) %MON extforcing_qnet_min          =  -1.8469117228190E+02
(PID.TID 0000.0001) %MON extforcing_qnet_mean         =  -1.6637645559275E+01
(PID.TID 0000.0001) %MON extforcing_qnet_sd           =   1.1179629855085E+02
(PID.TID 0000.0001) %MON extforcing_qnet_del2         =   9.5054858461913E+00
(PID.TID 0000.0001) %MON extforcing_qsw_max           =   0.0000000000000E+00
(PID.TID 0000.0001) %MON extforcing_qsw_min           =   0.0000000000000E+00
(PID.TID 0000.0001) %MON extforcing_qsw_mean          =   0.0000000000000E+00
(PID.TID 0000.0001) %MON extforcing_qsw_sd            =   0.0000000000000E+00
(PID.TID 0000.0001) %MON extforcing_qsw_del2          =   0.0000000000000E+00
(PID.TID 0000.0001) %MON extforcing_empmr_max         =   0.0000000000000E+00
(PID.TID 0000.0001) %MON extforcing_empmr_min         =   0.0000000000000E+00
(PID.TID 0000.0001) %MON extforcing_empmr_mean        =   0.0000000000000E+00
(PID.TID 0000.0001) %MON extforcing_empmr_sd          =   0.0000000000000E+00
(PID.TID 0000.0001) %MON extforcing_empmr_del2        =   0.0000000000000E+00
(PID.TID 0000.0001) %MON advcfl_uvel_max              =   3.6935706033647E-02
(PID.TID 0000.0001) %MON advcfl_vvel_max              =   2.1155108646084E-02
(PID.TID 0000.0001) %MON advcfl_wvel_max              =   7.5681755334298E-02
(PID.TID 0000.0001) %MON advcfl_W_hf_max              =   8.5639881036179E-02
(PID.TID 0000.0001) %MON pe_b_mean                    =   3.8003163039609E-04
(PID.TID 0000.0001) %MON ke_max                       =   8.1177568975449E-03
(PID.TID 0000.0001) %MON ke_mean                      =   6.8834915983224E-05
(PID.TID 0000.0001) %MON ke_vol                       =   1.3226782436722E+18
(PID.TID 0000.0001) %MON vort_r_min                   =  -2.6078234282633E-07
(PID.TID 0000.0001) %MON vort_r_max                   =   2.2325486578587E-07
(PID.TID 0000.0001) %MON vort_a_mean                  =  -2.5274806972380E-05
(PID.TID 0000.0001) %MON vort_a_sd                    =   7.3604251846537E-05
(PID.TID 0000.0001) %MON vort_p_mean                  =  -3.1845655263892E-05
(PID.TID 0000.0001) %MON vort_p_sd                    =   1.3162466068899E-04
(PID.TID 0000.0001) %MON surfExpan_theta_mean         =  -2.1503351067650E-06
(PID.TID 0000.0001) %MON surfExpan_salt_mean          =  -2.8341071029458E-07
(PID.TID 0000.0001) // =======================================================
(PID.TID 0000.0001) // End MONITOR dynamic field statistics
(PID.TID 0000.0001) // =======================================================
time,SST,SSS,fu,fv,Q,E-P,i0,i1,a,b =   5.1840E+05  2.5296E+01  3.5123E+01 -9.8553E-03  2.7506E-02 -6.4632E+01  0.0000E+00    12     1  7.0000E-01  3.0000E-01
time,fu0,fu1,fu =   5.1840E+05 -1.3840E-02 -8.1474E-03 -9.8553E-03  7.000000000000000E-01  3.000000000000000E-01
 cg2d: Sum(rhs),rhsMax =  -7.10542735760100E-15  1.55419822260067E+00
(PID.TID 0000.0001)                    cg2d_init_res =    7.75694487520611E-01
(PID.TID 0000.0001)                       cg2d_iters =   179
(PID.TID 0000.0001)                         cg2d_res =    8.77102036074750E-20
(PID.TID 0000.0001) // =======================================================
(PID.TID 0000.0001) // Begin MONITOR dynamic field statistics
(PID.TID 0000.0001) // =======================================================
(PID.TID 0000.0001) %MON time_tsnumber                =                     7
(PID.TID 0000.0001) %MON time_secondsf                =   6.0480000000000E+05
(PID.TID 0000.0001) %MON dynstat_eta_max              =   1.0871063885078E+00
(PID.TID 0000.0001) %MON dynstat_eta_min              =  -1.4514421125799E+00
(PID.TID 0000.0001) %MON dynstat_eta_mean             =  -8.3318501513459E-17
(PID.TID 0000.0001) %MON dynstat_eta_sd               =   5.3351668135403E-01
(PID.TID 0000.0001) %MON dynstat_eta_del2             =   2.0935264891231E-02
(PID.TID 0000.0001) %MON dynstat_uvel_max             =   1.3686783325581E-01
(PID.TID 0000.0001) %MON dynstat_uvel_min             =  -8.6092342269076E-02
(PID.TID 0000.0001) %MON dynstat_uvel_mean            =  -2.9441226120017E-04
(PID.TID 0000.0001) %MON dynstat_uvel_sd              =   8.9531218484811E-03
(PID.TID 0000.0001) %MON dynstat_uvel_del2            =   2.4686418977474E-03
(PID.TID 0000.0001) %MON dynstat_vvel_max             =   9.2489032710337E-02
(PID.TID 0000.0001) %MON dynstat_vvel_min             =  -1.1781971941382E-01
(PID.TID 0000.0001) %MON dynstat_vvel_mean            =  -2.1037202081636E-04
(PID.TID 0000.0001) %MON dynstat_vvel_sd              =   1.0543009451533E-02
(PID.TID 0000.0001) %MON dynstat_vvel_del2            =   2.9812782972489E-03
(PID.TID 0000.0001) %MON dynstat_wvel_max             =   2.3570151097292E-04
(PID.TID 0000.0001) %MON dynstat_wvel_min             =  -1.9351511805917E-04
(PID.TID 0000.0001) %MON dynstat_wvel_mean            =  -5.2846670323059E-23
(PID.TID 0000.0001) %MON dynstat_wvel_sd              =   2.6314501531108E-05
(PID.TID 0000.0001) %MON dynstat_wvel_del2            =   1.0438699176050E-05
(PID.TID 0000.0001) %MON dynstat_theta_max            =   2.9796936921787E+01
(PID.TID 0000.0001) %MON dynstat_theta_min            =  -1.9144302905623E+00
(PID.TID 0000.0001) %MON dynstat_theta_mean           =   3.6192184074680E+00
(PID.TID 0000.0001) %MON dynstat_theta_sd             =   4.4147195296308E+00
(PID.TID 0000.0001) %MON dynstat_theta_del2           =   1.4366865669319E-01
(PID.TID 0000.0001) %MON dynstat_salt_max             =   3.7428533721797E+01
(PID.TID 0000.0001) %MON dynstat_salt_min             =   2.9753230114819E+01
(PID.TID 0000.0001) %MON dynstat_salt_mean            =   3.4717952845471E+01
(PID.TID 0000.0001) %MON dynstat_salt_sd              =   2.9589743915779E-01
(PID.TID 0000.0001) %MON dynstat_salt_del2            =   2.6109578164363E-02
(PID.TID 0000.0001) %MON extforcing_qnet_max          =   4.3217993164062E+02
(PID.TID 0000.0001) %MON extforcing_qnet_min          =  -1.8422400970459E+02
(PID.TID 0000.0001) %MON extforcing_qnet_mean         =  -1.6625133603452E+01
(PID.TID 0000.0001) %MON extforcing_qnet_sd           =   1.1159198929743E+02
(PID.TID 0000.0001) %MON extforcing_qnet_del2         =   9.5132681531629E+00
(PID.TID 0000.0001) %MON extforcing_qsw_max           =   0.0000000000000E+00
(PID.TID 0000.0001) %MON extforcing_qsw_min           =   0.0000000000000E+00
(PID.TID 0000.0001) %MON extforcing_qsw_mean          =   0.0000000000000E+00
(PID.TID 0000.0001) %MON extforcing_qsw_sd            =   0.0000000000000E+00
(PID.TID 0000.0001) %MON extforcing_qsw_del2          =   0.0000000000000E+00
(PID.TID 0000.0001) %MON extforcing_empmr_max         =   0.0000000000000E+00
(PID.TID 0000.0001) %MON extforcing_empmr_min         =   0.0000000000000E+00
(PID.TID 0000.0001) %MON extforcing_empmr_mean        =   0.0000000000000E+00
(PID.TID 0000.0001) %MON extforcing_empmr_sd          =   0.0000000000000E+00
(PID.TID 0000.0001) %MON extforcing_empmr_del2        =   0.0000000000000E+00
(PID.TID 0000.0001) %MON advcfl_uvel_max              =   4.2896327098434E-02
(PID.TID 0000.0001) %MON advcfl_vvel_max              =   2.2890481880984E-02
(PID.TID 0000.0001) %MON advcfl_wvel_max              =   8.0227185493515E-02
(PID.TID 0000.0001) %MON advcfl_W_hf_max              =   9.0783394111083E-02
(PID.TID 0000.0001) %MON pe_b_mean                    =   3.6423125152854E-04
(PID.TID 0000.0001) %MON ke_max                       =   1.0481087629468E-02
(PID.TID 0000.0001) %MON ke_mean                      =   8.6378792320820E-05
(PID.TID 0000.0001) %MON ke_vol                       =   1.3226782436722E+18
(PID.TID 0000.0001) %MON vort_r_min                   =  -2.7492721359463E-07
(PID.TID 0000.0001) %MON vort_r_max                   =   2.4333918296824E-07
(PID.TID 0000.0001) %MON vort_a_mean                  =  -2.5274806974463E-05
(PID.TID 0000.0001) %MON vort_a_sd                    =   7.3604292484646E-05
(PID.TID 0000.0001) %MON vort_p_mean                  =  -3.1845655266517E-05
(PID.TID 0000.0001) %MON vort_p_sd                    =   1.3162451188571E-04
(PID.TID 0000.0001) %MON surfExpan_theta_mean         =  -1.6697380147388E-06
(PID.TID 0000.0001) %MON surfExpan_salt_mean          =  -2.2496374543828E-07
(PID.TID 0000.0001) // =======================================================
(PID.TID 0000.0001) // End MONITOR dynamic field statistics
(PID.TID 0000.0001) // =======================================================
time,SST,SSS,fu,fv,Q,E-P,i0,i1,a,b =   6.0480E+05  2.5366E+01  3.5115E+01 -9.6655E-03  2.7114E-02 -6.4640E+01  0.0000E+00    12     1  7.3333E-01  2.6667E-01
time,fu0,fu1,fu =   6.0480E+05 -1.3840E-02 -8.1474E-03 -9.6655E-03  7.333333333333333E-01  2.666666666666667E-01
 cg2d: Sum(rhs),rhsMax =   3.28626015289046E-14  1.32823755952748E+00
(PID.TID 0000.0001)                    cg2d_init_res =    9.12664258436949E-01
(PID.TID 0000.0001)                       cg2d_iters =   179
(PID.TID 0000.0001)                         cg2d_res =    8.92021425358422E-20
(PID.TID 0000.0001) // =======================================================
(PID.TID 0000.0001) // Begin MONITOR dynamic field statistics
(PID.TID 0000.0001) // =======================================================
(PID.TID 0000.0001) %MON time_tsnumber                =                     8
(PID.TID 0000.0001) %MON time_secondsf                =   6.9120000000000E+05
(PID.TID 0000.0001) %MON dynstat_eta_max              =   1.0628419433098E+00
(PID.TID 0000.0001) %MON dynstat_eta_min              =  -1.4183888700557E+00
(PID.TID 0000.0001) %MON dynstat_eta_mean             =  -2.0829625378365E-16
(PID.TID 0000.0001) %MON dynstat_eta_sd               =   5.2517955435409E-01
(PID.TID 0000.0001) %MON dynstat_eta_del2             =   1.9958905619725E-02
(PID.TID 0000.0001) %MON dynstat_uvel_max             =   1.5564366047490E-01
(PID.TID 0000.0001) %MON dynstat_uvel_min             =  -8.9539571683053E-02
(PID.TID 0000.0001) %MON dynstat_uvel_mean            =  -7.7308224401717E-05
(PID.TID 0000.0001) %MON dynstat_uvel_sd              =   1.0402700749396E-02
(PID.TID 0000.0001) %MON dynstat_uvel_del2            =   2.5947058648276E-03
(PID.TID 0000.0001) %MON dynstat_vvel_max             =   9.6693578110807E-02
(PID.TID 0000.0001) %MON dynstat_vvel_min             =  -1.2268302192400E-01
(PID.TID 0000.0001) %MON dynstat_vvel_mean            =  -3.1191752275700E-04
(PID.TID 0000.0001) %MON dynstat_vvel_sd              =   1.0980437504992E-02
(PID.TID 0000.0001) %MON dynstat_vvel_del2            =   3.0803920263751E-03
(PID.TID 0000.0001) %MON dynstat_wvel_max             =   2.3904059169290E-04
(PID.TID 0000.0001) %MON dynstat_wvel_min             =  -2.0540860582717E-04
(PID.TID 0000.0001) %MON dynstat_wvel_mean            =   2.4221390564735E-22
(PID.TID 0000.0001) %MON dynstat_wvel_sd              =   2.6407343555871E-05
(PID.TID 0000.0001) %MON dynstat_wvel_del2            =   1.0188330431260E-05
(PID.TID 0000.0001) %MON dynstat_theta_max            =   2.9805866833915E+01
(PID.TID 0000.0001) %MON dynstat_theta_min            =  -1.9150021504260E+00
(PID.TID 0000.0001) %MON dynstat_theta_mean           =   3.6193402023526E+00
(PID.TID 0000.0001) %MON dynstat_theta_sd             =   4.4148731071884E+00
(PID.TID 0000.0001) %MON dynstat_theta_del2           =   1.4232569009918E-01
(PID.TID 0000.0001) %MON dynstat_salt_max             =   3.7428937210925E+01
(PID.TID 0000.0001) %MON dynstat_salt_min             =   2.9751207126134E+01
(PID.TID 0000.0001) %MON dynstat_salt_mean            =   3.4717956825950E+01
(PID.TID 0000.0001) %MON dynstat_salt_sd              =   2.9588147013039E-01
(PID.TID 0000.0001) %MON dynstat_salt_del2            =   2.6064472708195E-02
(PID.TID 0000.0001) %MON extforcing_qnet_max          =   4.3322811889648E+02
(PID.TID 0000.0001) %MON extforcing_qnet_min          =  -1.8375684712728E+02
(PID.TID 0000.0001) %MON extforcing_qnet_mean         =  -1.6612621647628E+01
(PID.TID 0000.0001) %MON extforcing_qnet_sd           =   1.1139030190430E+02
(PID.TID 0000.0001) %MON extforcing_qnet_del2         =   9.5233734793557E+00
(PID.TID 0000.0001) %MON extforcing_qsw_max           =   0.0000000000000E+00
(PID.TID 0000.0001) %MON extforcing_qsw_min           =   0.0000000000000E+00
(PID.TID 0000.0001) %MON extforcing_qsw_mean          =   0.0000000000000E+00
(PID.TID 0000.0001) %MON extforcing_qsw_sd            =   0.0000000000000E+00
(PID.TID 0000.0001) %MON extforcing_qsw_del2          =   0.0000000000000E+00
(PID.TID 0000.0001) %MON extforcing_empmr_max         =   0.0000000000000E+00
(PID.TID 0000.0001) %MON extforcing_empmr_min         =   0.0000000000000E+00
(PID.TID 0000.0001) %MON extforcing_empmr_mean        =   0.0000000000000E+00
(PID.TID 0000.0001) %MON extforcing_empmr_sd          =   0.0000000000000E+00
(PID.TID 0000.0001) %MON extforcing_empmr_del2        =   0.0000000000000E+00
(PID.TID 0000.0001) %MON advcfl_uvel_max              =   4.7979105660563E-02
(PID.TID 0000.0001) %MON advcfl_vvel_max              =   2.3835343560718E-02
(PID.TID 0000.0001) %MON advcfl_wvel_max              =   8.2129663550677E-02
(PID.TID 0000.0001) %MON advcfl_W_hf_max              =   9.2936198228398E-02
(PID.TID 0000.0001) %MON pe_b_mean                    =   3.5293670012635E-04
(PID.TID 0000.0001) %MON ke_max                       =   1.2838509227477E-02
(PID.TID 0000.0001) %MON ke_mean                      =   1.0333980599701E-04
(PID.TID 0000.0001) %MON ke_vol                       =   1.3226782436722E+18
(PID.TID 0000.0001) %MON vort_r_min                   =  -3.1469848391828E-07
(PID.TID 0000.0001) %MON vort_r_max                   =   2.5660498656238E-07
(PID.TID 0000.0001) %MON vort_a_mean                  =  -2.5274807024996E-05
(PID.TID 0000.0001) %MON vort_a_sd                    =   7.3604329744016E-05
(PID.TID 0000.0001) %MON vort_p_mean                  =  -3.1845655330187E-05
(PID.TID 0000.0001) %MON vort_p_sd                    =   1.3162434098232E-04
(PID.TID 0000.0001) %MON surfExpan_theta_mean         =  -7.7921709757133E-07
(PID.TID 0000.0001) %MON surfExpan_salt_mean          =  -1.5826668643924E-07
(PID.TID 0000.0001) // =======================================================
(PID.TID 0000.0001) // End MONITOR dynamic field statistics
(PID.TID 0000.0001) // =======================================================
time,SST,SSS,fu,fv,Q,E-P,i0,i1,a,b =   6.9120E+05  2.5435E+01  3.5108E+01 -9.4758E-03  2.6723E-02 -6.4649E+01  0.0000E+00    12     1  7.6667E-01  2.3333E-01
time,fu0,fu1,fu =   6.9120E+05 -1.3840E-02 -8.1474E-03 -9.4758E-03  7.666666666666667E-01  2.333333333333333E-01
 cg2d: Sum(rhs),rhsMax =   9.65894031423886E-15  1.15613808765422E+00
(PID.TID 0000.0001)                    cg2d_init_res =    1.01831593497188E+00
(PID.TID 0000.0001)                       cg2d_iters =   179
(PID.TID 0000.0001)                         cg2d_res =    6.89349376926321E-20
(PID.TID 0000.0001) // =======================================================
(PID.TID 0000.0001) // Begin MONITOR dynamic field statistics
(PID.TID 0000.0001) // =======================================================
(PID.TID 0000.0001) %MON time_tsnumber                =                     9
(PID.TID 0000.0001) %MON time_secondsf                =   7.7760000000000E+05
(PID.TID 0000.0001) %MON dynstat_eta_max              =   9.7989918012390E-01
(PID.TID 0000.0001) %MON dynstat_eta_min              =  -1.3886769910225E+00
(PID.TID 0000.0001) %MON dynstat_eta_mean             =   4.2593187764183E-17
(PID.TID 0000.0001) %MON dynstat_eta_sd               =   5.2185504351841E-01
(PID.TID 0000.0001) %MON dynstat_eta_del2             =   1.9095932819014E-02
(PID.TID 0000.0001) %MON dynstat_uvel_max             =   1.7191427745870E-01
(PID.TID 0000.0001) %MON dynstat_uvel_min             =  -9.0402573299790E-02
(PID.TID 0000.0001) %MON dynstat_uvel_mean            =   1.2102786797911E-04
(PID.TID 0000.0001) %MON dynstat_uvel_sd              =   1.1801872691039E-02
(PID.TID 0000.0001) %MON dynstat_uvel_del2            =   2.6882277270494E-03
(PID.TID 0000.0001) %MON dynstat_vvel_max             =   9.8141186135013E-02
(PID.TID 0000.0001) %MON dynstat_vvel_min             =  -1.2628570110240E-01
(PID.TID 0000.0001) %MON dynstat_vvel_mean            =  -3.2784501199890E-04
(PID.TID 0000.0001) %MON dynstat_vvel_sd              =   1.1133128160998E-02
(PID.TID 0000.0001) %MON dynstat_vvel_del2            =   3.0991444035253E-03
(PID.TID 0000.0001) %MON dynstat_wvel_max             =   2.3461764010266E-04
(PID.TID 0000.0001) %MON dynstat_wvel_min             =  -2.1131786890434E-04
(PID.TID 0000.0001) %MON dynstat_wvel_mean            =   8.0737968549118E-23
(PID.TID 0000.0001) %MON dynstat_wvel_sd              =   2.5719335214525E-05
(PID.TID 0000.0001) %MON dynstat_wvel_del2            =   9.5987963737103E-06
(PID.TID 0000.0001) %MON dynstat_theta_max            =   2.9813196240319E+01
(PID.TID 0000.0001) %MON dynstat_theta_min            =  -1.9148111442169E+00
(PID.TID 0000.0001) %MON dynstat_theta_mean           =   3.6194363124365E+00
(PID.TID 0000.0001) %MON dynstat_theta_sd             =   4.4149582890802E+00
(PID.TID 0000.0001) %MON dynstat_theta_del2           =   1.4119798952891E-01
(PID.TID 0000.0001) %MON dynstat_salt_max             =   3.7429118072786E+01
(PID.TID 0000.0001) %MON dynstat_salt_min             =   2.9749935789758E+01
(PID.TID 0000.0001) %MON dynstat_salt_mean            =   3.4717959162574E+01
(PID.TID 0000.0001) %MON dynstat_salt_sd              =   2.9586629125288E-01
(PID.TID 0000.0001) %MON dynstat_salt_del2            =   2.6028385307277E-02
(PID.TID 0000.0001) %MON extforcing_qnet_max          =   4.3427630615234E+02
(PID.TID 0000.0001) %MON extforcing_qnet_min          =  -1.8328968454997E+02
(PID.TID 0000.0001) %MON extforcing_qnet_mean         =  -1.6600109691805E+01
(PID.TID 0000.0001) %MON extforcing_qnet_sd           =   1.1119125063866E+02
(PID.TID 0000.0001) %MON extforcing_qnet_del2         =   9.5355422152042E+00
(PID.TID 0000.0001) %MON extforcing_qsw_max           =   0.0000000000000E+00
(PID.TID 0000.0001) %MON extforcing_qsw_min           =   0.0000000000000E+00
(PID.TID 0000.0001) %MON extforcing_qsw_mean          =   0.0000000000000E+00
(PID.TID 0000.0001) %MON extforcing_qsw_sd            =   0.0000000000000E+00
(PID.TID 0000.0001) %MON extforcing_qsw_del2          =   0.0000000000000E+00
(PID.TID 0000.0001) %MON extforcing_empmr_max         =   0.0000000000000E+00
(PID.TID 0000.0001) %MON extforcing_empmr_min         =   0.0000000000000E+00
(PID.TID 0000.0001) %MON extforcing_empmr_mean        =   0.0000000000000E+00
(PID.TID 0000.0001) %MON extforcing_empmr_sd          =   0.0000000000000E+00
(PID.TID 0000.0001) %MON extforcing_empmr_del2        =   0.0000000000000E+00
(PID.TID 0000.0001) %MON advcfl_uvel_max              =   5.1954975553555E-02
(PID.TID 0000.0001) %MON advcfl_vvel_max              =   2.4535286345054E-02
(PID.TID 0000.0001) %MON advcfl_wvel_max              =   8.1540607212546E-02
(PID.TID 0000.0001) %MON advcfl_W_hf_max              =   9.2269634477355E-02
(PID.TID 0000.0001) %MON pe_b_mean                    =   3.4848249733679E-04
(PID.TID 0000.0001) %MON ke_max                       =   1.5081351230823E-02
(PID.TID 0000.0001) %MON ke_mean                      =   1.1897886445375E-04
(PID.TID 0000.0001) %MON ke_vol                       =   1.3226782436722E+18
(PID.TID 0000.0001) %MON vort_r_min                   =  -3.6023382001726E-07
(PID.TID 0000.0001) %MON vort_r_max                   =   2.7842309427543E-07
(PID.TID 0000.0001) %MON vort_a_mean                  =  -2.5274807104845E-05
(PID.TID 0000.0001) %MON vort_a_sd                    =   7.3604360385516E-05
(PID.TID 0000.0001) %MON vort_p_mean                  =  -3.1845655430795E-05
(PID.TID 0000.0001) %MON vort_p_sd                    =   1.3162415416265E-04
(PID.TID 0000.0001) %MON surfExpan_theta_mean         =  -7.7351371299909E-08
(PID.TID 0000.0001) %MON surfExpan_salt_mean          =  -1.1182394934662E-07
(PID.TID 0000.0001) // =======================================================
(PID.TID 0000.0001) // End MONITOR dynamic field statistics
(PID.TID 0000.0001) // =======================================================
time,SST,SSS,fu,fv,Q,E-P,i0,i1,a,b =   7.7760E+05  2.5505E+01  3.5101E+01 -9.2860E-03  2.6332E-02 -6.4657E+01  0.0000E+00    12     1  8.0000E-01  2.0000E-01
time,fu0,fu1,fu =   7.7760E+05 -1.3840E-02 -8.1474E-03 -9.2860E-03  8.000000000000000E-01  2.000000000000000E-01
 cg2d: Sum(rhs),rhsMax =  -2.79776202205539E-14  1.08384893707997E+00
(PID.TID 0000.0001)                    cg2d_init_res =    1.02287151016575E+00
(PID.TID 0000.0001)                       cg2d_iters =   179
(PID.TID 0000.0001)                         cg2d_res =    8.62768586559401E-20
(PID.TID 0000.0001) // =======================================================
(PID.TID 0000.0001) // Begin MONITOR dynamic field statistics
(PID.TID 0000.0001) // =======================================================
(PID.TID 0000.0001) %MON time_tsnumber                =                    10
(PID.TID 0000.0001) %MON time_secondsf                =   8.6400000000000E+05
(PID.TID 0000.0001) %MON dynstat_eta_max              =   8.7036664785723E-01
(PID.TID 0000.0001) %MON dynstat_eta_min              =  -1.3633176280675E+00
(PID.TID 0000.0001) %MON dynstat_eta_mean             =   2.8074712466492E-17
(PID.TID 0000.0001) %MON dynstat_eta_sd               =   5.2380808175799E-01
(PID.TID 0000.0001) %MON dynstat_eta_del2             =   1.8366905032235E-02
(PID.TID 0000.0001) %MON dynstat_uvel_max             =   1.8513660560303E-01
(PID.TID 0000.0001) %MON dynstat_uvel_min             =  -8.8725505632108E-02
(PID.TID 0000.0001) %MON dynstat_uvel_mean            =   2.9083859911878E-04
(PID.TID 0000.0001) %MON dynstat_uvel_sd              =   1.3104355301681E-02
(PID.TID 0000.0001) %MON dynstat_uvel_del2            =   2.7606798144157E-03
(PID.TID 0000.0001) %MON dynstat_vvel_max             =   9.9910571323114E-02
(PID.TID 0000.0001) %MON dynstat_vvel_min             =  -1.2622016237406E-01
(PID.TID 0000.0001) %MON dynstat_vvel_mean            =  -2.8191675001687E-04
(PID.TID 0000.0001) %MON dynstat_vvel_sd              =   1.1037081202639E-02
(PID.TID 0000.0001) %MON dynstat_vvel_del2            =   3.0534550821055E-03
(PID.TID 0000.0001) %MON dynstat_wvel_max             =   2.2324537319441E-04
(PID.TID 0000.0001) %MON dynstat_wvel_min             =  -2.1099093317692E-04
(PID.TID 0000.0001) %MON dynstat_wvel_mean            =   3.3322761564818E-22
(PID.TID 0000.0001) %MON dynstat_wvel_sd              =   2.4448019844118E-05
(PID.TID 0000.0001) %MON dynstat_wvel_del2            =   8.7809789870202E-06
(PID.TID 0000.0001) %MON dynstat_theta_max            =   2.9819357004412E+01
(PID.TID 0000.0001) %MON dynstat_theta_min            =  -1.9151909577148E+00
(PID.TID 0000.0001) %MON dynstat_theta_mean           =   3.6195190862191E+00
(PID.TID 0000.0001) %MON dynstat_theta_sd             =   4.4150122577383E+00
(PID.TID 0000.0001) %MON dynstat_theta_del2           =   1.4029087375515E-01
(PID.TID 0000.0001) %MON dynstat_salt_max             =   3.7428981349759E+01
(PID.TID 0000.0001) %MON dynstat_salt_min             =   2.9749540638926E+01
(PID.TID 0000.0001) %MON dynstat_salt_mean            =   3.4717960712850E+01
(PID.TID 0000.0001) %MON dynstat_salt_sd              =   2.9584951693229E-01
(PID.TID 0000.0001) %MON dynstat_salt_del2            =   2.6005376608828E-02
(PID.TID 0000.0001) %MON extforcing_qnet_max          =   4.3532449340820E+02
(PID.TID 0000.0001) %MON extforcing_qnet_min          =  -1.8282252197266E+02
(PID.TID 0000.0001) %MON extforcing_qnet_mean         =  -1.6587597735982E+01
(PID.TID 0000.0001) %MON extforcing_qnet_sd           =   1.1099484968290E+02
(PID.TID 0000.0001) %MON extforcing_qnet_del2         =   9.5493322704987E+00
(PID.TID 0000.0001) %MON extforcing_qsw_max           =   0.0000000000000E+00
(PID.TID 0000.0001) %MON extforcing_qsw_min           =   0.0000000000000E+00
(PID.TID 0000.0001) %MON extforcing_qsw_mean          =   0.0000000000000E+00
(PID.TID 0000.0001) %MON extforcing_qsw_sd            =   0.0000000000000E+00
(PID.TID 0000.0001) %MON extforcing_qsw_del2          =   0.0000000000000E+00
(PID.TID 0000.0001) %MON extforcing_empmr_max         =   0.0000000000000E+00
(PID.TID 0000.0001) %MON extforcing_empmr_min         =   0.0000000000000E+00
(PID.TID 0000.0001) %MON extforcing_empmr_mean        =   0.0000000000000E+00
(PID.TID 0000.0001) %MON extforcing_empmr_sd          =   0.0000000000000E+00
(PID.TID 0000.0001) %MON extforcing_empmr_del2        =   0.0000000000000E+00
(PID.TID 0000.0001) %MON advcfl_uvel_max              =   5.4671387415784E-02
(PID.TID 0000.0001) %MON advcfl_vvel_max              =   2.4522553221252E-02
(PID.TID 0000.0001) %MON advcfl_wvel_max              =   7.8697988377815E-02
(PID.TID 0000.0001) %MON advcfl_W_hf_max              =   8.9052986848580E-02
(PID.TID 0000.0001) %MON pe_b_mean                    =   3.5109576407014E-04
(PID.TID 0000.0001) %MON ke_max                       =   1.7114886002155E-02
(PID.TID 0000.0001) %MON ke_mean                      =   1.3278004411994E-04
(PID.TID 0000.0001) %MON ke_vol                       =   1.3226782436722E+18
(PID.TID 0000.0001) %MON vort_r_min                   =  -3.9861410336601E-07
(PID.TID 0000.0001) %MON vort_r_max                   =   3.0389994285182E-07
(PID.TID 0000.0001) %MON vort_a_mean                  =  -2.5274807183977E-05
(PID.TID 0000.0001) %MON vort_a_sd                    =   7.3604383089812E-05
(PID.TID 0000.0001) %MON vort_p_mean                  =  -3.1845655530499E-05
(PID.TID 0000.0001) %MON vort_p_sd                    =   1.3162396177494E-04
(PID.TID 0000.0001) %MON surfExpan_theta_mean         =   2.9032596259701E-07
(PID.TID 0000.0001) %MON surfExpan_salt_mean          =  -8.8643565938877E-08
(PID.TID 0000.0001) // =======================================================
(PID.TID 0000.0001) // End MONITOR dynamic field statistics
(PID.TID 0000.0001) // =======================================================
(PID.TID 0000.0001) %CHECKPOINT        10 ckptA
(PID.TID 0000.0001)  MDS_READ_FIELD: opening global file: lev_t_an.bin
 --> objf_test(bi,bj)   =  0.000000000000000E+00
 --> objf_tracer(bi,bj) =  0.000000000000000E+00
 --> objf_atl(bi,bj)    =  0.000000000000000E+00
 --> objf_temp_tut(bi,bj)   =  0.141928169231368E+01
 --> objf_hflux_tut(bi,bj) =  0.000000000000000E+00
 --> objf_test(bi,bj)   =  0.000000000000000E+00
 --> objf_tracer(bi,bj) =  0.000000000000000E+00
 --> objf_atl(bi,bj)    =  0.000000000000000E+00
 --> objf_temp_tut(bi,bj)   =  0.185926149038178E+01
 --> objf_hflux_tut(bi,bj) =  0.000000000000000E+00
 --> objf_test(bi,bj)   =  0.000000000000000E+00
 --> objf_tracer(bi,bj) =  0.000000000000000E+00
 --> objf_atl(bi,bj)    =  0.000000000000000E+00
 --> objf_temp_tut(bi,bj)   =  0.140639570537718E+01
 --> objf_hflux_tut(bi,bj) =  0.000000000000000E+00
 --> objf_test(bi,bj)   =  0.000000000000000E+00
 --> objf_tracer(bi,bj) =  0.000000000000000E+00
 --> objf_atl(bi,bj)    =  0.000000000000000E+00
 --> objf_temp_tut(bi,bj)   =  0.151993756255373E+01
 --> objf_hflux_tut(bi,bj) =  0.000000000000000E+00
  local fc =  0.620487645062636E+01
 global fc =  0.620487645062636E+01
(PID.TID 0000.0001)  MDS_READ_FIELD: opening global file: lev_t_an.bin
S/R EXTERNAL_FIELDS_LOAD: Reading new data:   12    1         0  0.000000000000E+00
(PID.TID 0000.0001)  MDS_READ_FIELD: opening global file: trenberth_taux.bin
(PID.TID 0000.0001)  MDS_READ_FIELD: opening global file: trenberth_taux.bin
(PID.TID 0000.0001)  MDS_READ_FIELD: opening global file: trenberth_tauy.bin
(PID.TID 0000.0001)  MDS_READ_FIELD: opening global file: trenberth_tauy.bin
(PID.TID 0000.0001)  MDS_READ_FIELD: opening global file: ncep_qnet.bin
(PID.TID 0000.0001)  MDS_READ_FIELD: opening global file: ncep_qnet.bin
(PID.TID 0000.0001)  MDS_READ_FIELD: opening global file: lev_sst.bin
(PID.TID 0000.0001)  MDS_READ_FIELD: opening global file: lev_sst.bin
(PID.TID 0000.0001)  MDS_READ_FIELD: opening global file: lev_sss.bin
(PID.TID 0000.0001)  MDS_READ_FIELD: opening global file: lev_sss.bin
time,SST,SSS,fu,fv,Q,E-P,i0,i1,a,b =   0.0000E+00  2.4878E+01  3.5166E+01 -1.0994E-02  2.9853E-02 -6.4581E+01  0.0000E+00    12     1  5.0000E-01  5.0000E-01
time,fu0,fu1,fu =   0.0000E+00 -1.3840E-02 -8.1474E-03 -1.0994E-02  5.000000000000000E-01  5.000000000000000E-01
(PID.TID 0000.0001)  MDS_READ_FIELD: opening file: xx_hfluxm.0000000000.001.001.data
(PID.TID 0000.0001)  MDS_READ_FIELD: opening file: xx_hfluxm.0000000000.002.001.data
(PID.TID 0000.0001)  MDS_READ_FIELD: opening file: xx_hfluxm.0000000000.001.002.data
(PID.TID 0000.0001)  MDS_READ_FIELD: opening file: xx_hfluxm.0000000000.002.002.data
 cg2d: Sum(rhs),rhsMax =   4.21884749357559E-15  2.54952604282385E+00
time,SST,SSS,fu,fv,Q,E-P,i0,i1,a,b =   8.6400E+04  2.4948E+01  3.5159E+01 -1.0804E-02  2.9462E-02 -6.4589E+01  0.0000E+00    12     1  5.3333E-01  4.6667E-01
time,fu0,fu1,fu =   8.6400E+04 -1.3840E-02 -8.1474E-03 -1.0804E-02  5.333333333333333E-01  4.666666666666667E-01
 cg2d: Sum(rhs),rhsMax =   3.33066907387547E-15  2.62443215722193E+00
time,SST,SSS,fu,fv,Q,E-P,i0,i1,a,b =   1.7280E+05  2.5017E+01  3.5152E+01 -1.0614E-02  2.9071E-02 -6.4598E+01  0.0000E+00    12     1  5.6667E-01  4.3333E-01
time,fu0,fu1,fu =   1.7280E+05 -1.3840E-02 -8.1474E-03 -1.0614E-02  5.666666666666667E-01  4.333333333333333E-01
 cg2d: Sum(rhs),rhsMax =   3.08642000845794E-14  2.39923446840263E+00
time,SST,SSS,fu,fv,Q,E-P,i0,i1,a,b =   2.5920E+05  2.5087E+01  3.5144E+01 -1.0425E-02  2.8680E-02 -6.4606E+01  0.0000E+00    12     1  6.0000E-01  4.0000E-01
time,fu0,fu1,fu =   2.5920E+05 -1.3840E-02 -8.1474E-03 -1.0425E-02  6.000000000000000E-01  4.000000000000000E-01
 cg2d: Sum(rhs),rhsMax =  -2.97539770599542E-14  2.21574359151332E+00
time,SST,SSS,fu,fv,Q,E-P,i0,i1,a,b =   3.4560E+05  2.5157E+01  3.5137E+01 -1.0235E-02  2.8288E-02 -6.4615E+01  0.0000E+00    12     1  6.3333E-01  3.6667E-01
time,fu0,fu1,fu =   3.4560E+05 -1.3840E-02 -8.1474E-03 -1.0235E-02  6.333333333333333E-01  3.666666666666667E-01
 cg2d: Sum(rhs),rhsMax =  -2.66453525910038E-15  2.00995911954308E+00
time,SST,SSS,fu,fv,Q,E-P,i0,i1,a,b =   4.3200E+05  2.5226E+01  3.5130E+01 -1.0045E-02  2.7897E-02 -6.4623E+01  0.0000E+00    12     1  6.6667E-01  3.3333E-01
time,fu0,fu1,fu =   4.3200E+05 -1.3840E-02 -8.1474E-03 -1.0045E-02  6.666666666666666E-01  3.333333333333334E-01
 cg2d: Sum(rhs),rhsMax =  -7.99360577730113E-15  1.78612610533029E+00
time,SST,SSS,fu,fv,Q,E-P,i0,i1,a,b =   5.1840E+05  2.5296E+01  3.5123E+01 -9.8553E-03  2.7506E-02 -6.4632E+01  0.0000E+00    12     1  7.0000E-01  3.0000E-01
time,fu0,fu1,fu =   5.1840E+05 -1.3840E-02 -8.1474E-03 -9.8553E-03  7.000000000000000E-01  3.000000000000000E-01
 cg2d: Sum(rhs),rhsMax =  -7.10542735760100E-15  1.55419822260067E+00
time,SST,SSS,fu,fv,Q,E-P,i0,i1,a,b =   6.0480E+05  2.5366E+01  3.5115E+01 -9.6655E-03  2.7114E-02 -6.4640E+01  0.0000E+00    12     1  7.3333E-01  2.6667E-01
time,fu0,fu1,fu =   6.0480E+05 -1.3840E-02 -8.1474E-03 -9.6655E-03  7.333333333333333E-01  2.666666666666667E-01
 cg2d: Sum(rhs),rhsMax =   3.28626015289046E-14  1.32823755952748E+00
time,SST,SSS,fu,fv,Q,E-P,i0,i1,a,b =   6.9120E+05  2.5435E+01  3.5108E+01 -9.4758E-03  2.6723E-02 -6.4649E+01  0.0000E+00    12     1  7.6667E-01  2.3333E-01
time,fu0,fu1,fu =   6.9120E+05 -1.3840E-02 -8.1474E-03 -9.4758E-03  7.666666666666667E-01  2.333333333333333E-01
 cg2d: Sum(rhs),rhsMax =   9.65894031423886E-15  1.15613808765422E+00
time,SST,SSS,fu,fv,Q,E-P,i0,i1,a,b =   7.7760E+05  2.5505E+01  3.5101E+01 -9.2860E-03  2.6332E-02 -6.4657E+01  0.0000E+00    12     1  8.0000E-01  2.0000E-01
time,fu0,fu1,fu =   7.7760E+05 -1.3840E-02 -8.1474E-03 -9.2860E-03  8.000000000000000E-01  2.000000000000000E-01
 cg2d: Sum(rhs),rhsMax =  -2.79776202205539E-14  1.08384893707997E+00
(PID.TID 0000.0001) %CHECKPOINT        10 ckptB
S/R EXTERNAL_FIELDS_LOAD: Reading new data:   12    1         0  0.000000000000E+00
(PID.TID 0000.0001)  MDS_READ_FIELD: opening global file: trenberth_taux.bin
(PID.TID 0000.0001)  MDS_READ_FIELD: opening global file: trenberth_taux.bin
(PID.TID 0000.0001)  MDS_READ_FIELD: opening global file: trenberth_tauy.bin
(PID.TID 0000.0001)  MDS_READ_FIELD: opening global file: trenberth_tauy.bin
(PID.TID 0000.0001)  MDS_READ_FIELD: opening global file: ncep_qnet.bin
(PID.TID 0000.0001)  MDS_READ_FIELD: opening global file: ncep_qnet.bin
(PID.TID 0000.0001)  MDS_READ_FIELD: opening global file: lev_sst.bin
(PID.TID 0000.0001)  MDS_READ_FIELD: opening global file: lev_sst.bin
(PID.TID 0000.0001)  MDS_READ_FIELD: opening global file: lev_sss.bin
(PID.TID 0000.0001)  MDS_READ_FIELD: opening global file: lev_sss.bin
time,SST,SSS,fu,fv,Q,E-P,i0,i1,a,b =   0.0000E+00  2.4878E+01  3.5166E+01 -1.0994E-02  2.9853E-02 -6.4581E+01  0.0000E+00    12     1  5.0000E-01  5.0000E-01
time,fu0,fu1,fu =   0.0000E+00 -1.3840E-02 -8.1474E-03 -1.0994E-02  5.000000000000000E-01  5.000000000000000E-01
(PID.TID 0000.0001)  MDS_READ_FIELD: opening file: xx_hfluxm.0000000000.001.001.data
(PID.TID 0000.0001)  MDS_READ_FIELD: opening file: xx_hfluxm.0000000000.002.001.data
(PID.TID 0000.0001)  MDS_READ_FIELD: opening file: xx_hfluxm.0000000000.001.002.data
(PID.TID 0000.0001)  MDS_READ_FIELD: opening file: xx_hfluxm.0000000000.002.002.data
 cg2d: Sum(rhs),rhsMax =   4.21884749357559E-15  2.54952604282385E+00
time,SST,SSS,fu,fv,Q,E-P,i0,i1,a,b =   8.6400E+04  2.4948E+01  3.5159E+01 -1.0804E-02  2.9462E-02 -6.4589E+01  0.0000E+00    12     1  5.3333E-01  4.6667E-01
time,fu0,fu1,fu =   8.6400E+04 -1.3840E-02 -8.1474E-03 -1.0804E-02  5.333333333333333E-01  4.666666666666667E-01
 cg2d: Sum(rhs),rhsMax =   3.33066907387547E-15  2.62443215722193E+00
time,SST,SSS,fu,fv,Q,E-P,i0,i1,a,b =   1.7280E+05  2.5017E+01  3.5152E+01 -1.0614E-02  2.9071E-02 -6.4598E+01  0.0000E+00    12     1  5.6667E-01  4.3333E-01
time,fu0,fu1,fu =   1.7280E+05 -1.3840E-02 -8.1474E-03 -1.0614E-02  5.666666666666667E-01  4.333333333333333E-01
 cg2d: Sum(rhs),rhsMax =   3.08642000845794E-14  2.39923446840263E+00
time,SST,SSS,fu,fv,Q,E-P,i0,i1,a,b =   2.5920E+05  2.5087E+01  3.5144E+01 -1.0425E-02  2.8680E-02 -6.4606E+01  0.0000E+00    12     1  6.0000E-01  4.0000E-01
time,fu0,fu1,fu =   2.5920E+05 -1.3840E-02 -8.1474E-03 -1.0425E-02  6.000000000000000E-01  4.000000000000000E-01
 cg2d: Sum(rhs),rhsMax =  -2.97539770599542E-14  2.21574359151332E+00
time,SST,SSS,fu,fv,Q,E-P,i0,i1,a,b =   3.4560E+05  2.5157E+01  3.5137E+01 -1.0235E-02  2.8288E-02 -6.4615E+01  0.0000E+00    12     1  6.3333E-01  3.6667E-01
time,fu0,fu1,fu =   3.4560E+05 -1.3840E-02 -8.1474E-03 -1.0235E-02  6.333333333333333E-01  3.666666666666667E-01
 cg2d: Sum(rhs),rhsMax =  -8.88178419700125E-16  2.00995911954308E+00
time,SST,SSS,fu,fv,Q,E-P,i0,i1,a,b =   4.3200E+05  2.5226E+01  3.5130E+01 -1.0045E-02  2.7897E-02 -6.4623E+01  0.0000E+00    12     1  6.6667E-01  3.3333E-01
time,fu0,fu1,fu =   4.3200E+05 -1.3840E-02 -8.1474E-03 -1.0045E-02  6.666666666666666E-01  3.333333333333334E-01
 cg2d: Sum(rhs),rhsMax =  -7.10542735760100E-15  1.78612610533029E+00
time,SST,SSS,fu,fv,Q,E-P,i0,i1,a,b =   5.1840E+05  2.5296E+01  3.5123E+01 -9.8553E-03  2.7506E-02 -6.4632E+01  0.0000E+00    12     1  7.0000E-01  3.0000E-01
time,fu0,fu1,fu =   5.1840E+05 -1.3840E-02 -8.1474E-03 -9.8553E-03  7.000000000000000E-01  3.000000000000000E-01
 cg2d: Sum(rhs),rhsMax =  -4.21884749357559E-14  1.55419822260067E+00
time,SST,SSS,fu,fv,Q,E-P,i0,i1,a,b =   6.0480E+05  2.5366E+01  3.5115E+01 -9.6655E-03  2.7114E-02 -6.4640E+01  0.0000E+00    12     1  7.3333E-01  2.6667E-01
time,fu0,fu1,fu =   6.0480E+05 -1.3840E-02 -8.1474E-03 -9.6655E-03  7.333333333333333E-01  2.666666666666667E-01
 cg2d: Sum(rhs),rhsMax =  -3.59712259978551E-14  1.32823755952749E+00
time,SST,SSS,fu,fv,Q,E-P,i0,i1,a,b =   6.9120E+05  2.5435E+01  3.5108E+01 -9.4758E-03  2.6723E-02 -6.4649E+01  0.0000E+00    12     1  7.6667E-01  2.3333E-01
time,fu0,fu1,fu =   6.9120E+05 -1.3840E-02 -8.1474E-03 -9.4758E-03  7.666666666666667E-01  2.333333333333333E-01
 cg2d: Sum(rhs),rhsMax =  -5.67323965583455E-14  1.15613808765435E+00
time,SST,SSS,fu,fv,Q,E-P,i0,i1,a,b =   7.7760E+05  2.5505E+01  3.5101E+01 -9.2860E-03  2.6332E-02 -6.4657E+01  0.0000E+00    12     1  8.0000E-01  2.0000E-01
time,fu0,fu1,fu =   7.7760E+05 -1.3840E-02 -8.1474E-03 -9.2860E-03  8.000000000000000E-01  2.000000000000000E-01
 cg2d: Sum(rhs),rhsMax =   1.64313007644523E-14  1.08384893707997E+00
(PID.TID 0000.0001) %CHECKPOINT        10 ckptA
(PID.TID 0000.0001) %CHECKPOINT        10 ckptB
 cg2d: Sum(rhs),rhsMax =   0.00000000000000E+00  0.00000000000000E+00
 cg2d: Sum(rhs),rhsMax =   7.10542735760100E-15  3.97563565665643E-08
 cg2d: Sum(rhs),rhsMax =  -2.66453525910038E-15  3.10259650978566E-08
 cg2d: Sum(rhs),rhsMax =   1.77635683940025E-15  4.29187618870152E-08
 cg2d: Sum(rhs),rhsMax =   2.22044604925031E-16  8.59954046987374E-08
 cg2d: Sum(rhs),rhsMax =   1.33226762955019E-15  1.40011812583381E-07
 cg2d: Sum(rhs),rhsMax =   5.55111512312578E-16  2.19520885633502E-07
 cg2d: Sum(rhs),rhsMax =  -4.71844785465692E-16  3.27173361166850E-07
 cg2d: Sum(rhs),rhsMax =  -3.02535774210355E-15  4.53059077553099E-07
 cg2d: Sum(rhs),rhsMax =  -2.22044604925031E-16  6.02162940109014E-07
(PID.TID 0000.0001)  MDS_READ_FIELD: opening file: adxx_hfluxm.0000000000.001.001.data
(PID.TID 0000.0001)  MDS_READ_FIELD: opening file: adxx_hfluxm.0000000000.002.001.data
(PID.TID 0000.0001)  MDS_READ_FIELD: opening file: adxx_hfluxm.0000000000.001.002.data
(PID.TID 0000.0001)  MDS_READ_FIELD: opening file: adxx_hfluxm.0000000000.002.002.data
 ph-pack: packing ecco_cost
(PID.TID 0000.0001)  MDSREADFIELD_GL: opening file: whfluxm.001.001.data
(PID.TID 0000.0001)  MDSREADFIELD_GL: opening file: whfluxm.002.001.data
(PID.TID 0000.0001)  MDSREADFIELD_GL: opening file: whfluxm.001.002.data
(PID.TID 0000.0001)  MDSREADFIELD_GL: opening file: whfluxm.002.002.data
(PID.TID 0000.0001)  MDSREADFIELD_GL: opening file: maskCtrlC.001.001.data
(PID.TID 0000.0001)  MDSREADFIELD_GL: opening file: maskCtrlC.002.001.data
(PID.TID 0000.0001)  MDSREADFIELD_GL: opening file: maskCtrlC.001.002.data
(PID.TID 0000.0001)  MDSREADFIELD_GL: opening file: maskCtrlC.002.002.data
(PID.TID 0000.0001)  MDSREADFIELD_GL: opening file: adxx_hfluxm.0000000000.001.001.data
(PID.TID 0000.0001)  MDSREADFIELD_GL: opening file: adxx_hfluxm.0000000000.002.001.data
(PID.TID 0000.0001)  MDSREADFIELD_GL: opening file: adxx_hfluxm.0000000000.001.002.data
(PID.TID 0000.0001)  MDSREADFIELD_GL: opening file: adxx_hfluxm.0000000000.002.002.data
 ph-pack: packing ecco_ctrl
(PID.TID 0000.0001)  MDSREADFIELD_GL: opening file: whfluxm.001.001.data
(PID.TID 0000.0001)  MDSREADFIELD_GL: opening file: whfluxm.002.001.data
(PID.TID 0000.0001)  MDSREADFIELD_GL: opening file: whfluxm.001.002.data
(PID.TID 0000.0001)  MDSREADFIELD_GL: opening file: whfluxm.002.002.data
(PID.TID 0000.0001)  MDSREADFIELD_GL: opening file: maskCtrlC.001.001.data
(PID.TID 0000.0001)  MDSREADFIELD_GL: opening file: maskCtrlC.002.001.data
(PID.TID 0000.0001)  MDSREADFIELD_GL: opening file: maskCtrlC.001.002.data
(PID.TID 0000.0001)  MDSREADFIELD_GL: opening file: maskCtrlC.002.002.data
(PID.TID 0000.0001)  MDSREADFIELD_GL: opening file: xx_hfluxm.0000000000.001.001.data
(PID.TID 0000.0001)  MDSREADFIELD_GL: opening file: xx_hfluxm.0000000000.002.001.data
(PID.TID 0000.0001)  MDSREADFIELD_GL: opening file: xx_hfluxm.0000000000.001.002.data
(PID.TID 0000.0001)  MDSREADFIELD_GL: opening file: xx_hfluxm.0000000000.002.002.data
 ph-check entering grdchk_main 
 ph-check fcref =   6.20487645
grad-res -------------------------------
 grad-res  proc    #    i    j    k   bi   bj iobc               fc ref           fc + eps           fc - eps
 grad-res  proc    #    i    j    k   bi   bj iobc             adj grad            fd grad         1 - fd/adj
 ph-grd -->hit<--  43 2 1 1
(PID.TID 0000.0001)  MDS_READ_FIELD: opening file: adxx_hfluxm.0000000000.001.001.data
(PID.TID 0000.0001)  MDS_READ_FIELD: opening file: adxx_hfluxm.0000000000.002.001.data
(PID.TID 0000.0001)  MDS_READ_FIELD: opening file: adxx_hfluxm.0000000000.001.002.data
(PID.TID 0000.0001)  MDS_READ_FIELD: opening file: adxx_hfluxm.0000000000.002.002.data
(PID.TID 0000.0001)  MDS_READ_FIELD: opening file: xx_hfluxm.0000000000.001.001.data
(PID.TID 0000.0001)  MDS_READ_FIELD: opening file: xx_hfluxm.0000000000.002.001.data
(PID.TID 0000.0001)  MDS_READ_FIELD: opening file: xx_hfluxm.0000000000.001.002.data
(PID.TID 0000.0001)  MDS_READ_FIELD: opening file: xx_hfluxm.0000000000.002.002.data
(PID.TID 0000.0001)  MDS_READ_FIELD: opening global file: bathymetry.bin
(PID.TID 0000.0001) // =======================================================
(PID.TID 0000.0001) // Field Model R_low (ini_masks_etc) at iteration          1
(PID.TID 0000.0001) // CMIN =         -5.200000000000000E+03
(PID.TID 0000.0001) // CMAX =         -1.200000000000000E+02
(PID.TID 0000.0001) // CINT =          1.881481481481482E+02
(PID.TID 0000.0001) // SYMBOLS (CMIN->CMAX): -abcdefghijklmnopqrstuvwxyz+
(PID.TID 0000.0001) //                  0.0: .
(PID.TID 0000.0001) // RANGE I (Lo:Hi:Step):(  -1:  92:   1)
(PID.TID 0000.0001) // RANGE J (Lo:Hi:Step):(  42:  -1:  -1)
(PID.TID 0000.0001) // RANGE K (Lo:Hi:Step):(   1:   1:   1)
(PID.TID 0000.0001) // =======================================================
(PID.TID 0000.0001) K =   1
(PID.TID 0000.0001) //                I=8       I=18      I=28      I=38      I=44      I=54      I=64      I=74      I=84
(PID.TID 0000.0001) // |--J--|101234567|901234567|901234567|901234567|901234567|567890123|567890123|567890123|567890123|56789012
(PID.TID 0000.0001) //     42 ............................................zyxxmyxxmgfeeefefgimnpwwwy..+zyy.....yyyyoiiihhz+.....
(PID.TID 0000.0001) //     41 ..................................................................................................
(PID.TID 0000.0001) //     40 qlloqz+.++++zzz++++++......................................................................+++qllo
(PID.TID 0000.0001) //     39 slloorzzzzzzzzz+...++.........................................................yxxz........+zvusllo
(PID.TID 0000.0001) //     38 mqpporzzzzzz+++...............................................................zxxy+......zyyvsmqpp
(PID.TID 0000.0001) //     37 mmmuz......................................................................++...zy+...yttyy.+smmmu
(PID.TID 0000.0001) //     36 utt+.........................................mm++mm++....................+++++++znmm.yoowssvuyutt+
(PID.TID 0000.0001) //     35 ++++.................................+zzz..rrmmkkmmkk+...+gghn...........+++....+nmiijlsoopuww++++
(PID.TID 0000.0001) //     34 .....................................+vvy.ggqyxv+yxv+y.ccdffhim..................+nihhikkihhm+....
(PID.TID 0000.0001) //     33 +.....................................uuz---h----------aaabdefin+.................zqvddflifffw+...
(PID.TID 0000.0001) //     32 +.....................................+t----h-------------acdfgnn................+++gdffkofffm+...
(PID.TID 0000.0001) //     31 ......................................-----ad------------abddegil..............qbaafccdhqqgddm....
(PID.TID 0000.0001) //     30 .....................................f----b--b---b------------abd............zfbb--fbcdosjfddi....
(PID.TID 0000.0001) //     29 ...................................tu----e---fjg-fjg----------abdf...........eaac--abfmijaadgi....
(PID.TID 0000.0001) //     28 .................................+xfl-----------------------bdedefi.........qbaa---aemfbbaaejz....
(PID.TID 0000.0001) //     27 ................xx..............+wfgfpf--------ea--eallc---bbbccefgi...+++x.qb-----akfa---ah......
(PID.TID 0000.0001) //     26 ................xnn...........+vd---dna------a--aa--aicfna---aabdfghku.++xssuy-----bgca---ci......
(PID.TID 0000.0001) //     25 ................iiik...oo+...+ivd---doaa-bc--ilglilglf--aa---aabcghhkll...ssum+xaaacjbaabdjk......
(PID.TID 0000.0001) //     24 ..............xnheeft.kkk+...uii.aagdm----aa---------a-------bbbcdefjljjju.zummwwbbchba--abi......
(PID.TID 0000.0001) //     23 ..............xgheefp.iikw...uuw..fihi----fed---------eaaa--bbbbcdfflkjiiiq....zykccefa--abd......
(PID.TID 0000.0001) //     22 uss...........bbelffslffkk...zz.wqkeeqoheccdfa---a-----egabaabcdddegghliiiqq......xeeehheehccquss.
(PID.TID 0000.0001) //     21 bbeir........nbbcdjhqdddiiz.....wqfeelgghmedea---a-----bibbcddddddefghklnqoo........ieeflhgcccbbei
(PID.TID 0000.0001) //     20 bbder.......ldcccdgkccccidd......z.vkkktqqhegg---g----aaacddddddddefghkiiijl.........nhfa--gfcbbde
(PID.TID 0000.0001) //     19 cdaaf.......kddosggpaaaibbccx...+z+.....r+nlec---c---agaaabcddccddefikfgffff...........d---cjhcdaa
(PID.TID 0000.0001) //     22 uss...........bbelffslffkk...zz.wqkeeqoheccdfa---a-----egabaabcdddegghliiiqq......xeeehheehccquss.
(PID.TID 0000.0001) //     21 bbeir........nbbcdjhqdddiiz.....wqfeelgghmedea---a-----bibbcddddddefghklnqoo........ieeflhgcccbbei
(PID.TID 0000.0001) //     20 bbder.......ldcccdgkccccidd......z.vkkktqqhegg---g----aaacddddddddefghkiiijl.........nhfa--gfcbbde
(PID.TID 0000.0001) //     19 cdaaf.......kddosggpaaaibbccx...+z+.....r+nlec---c---agaaabcddccddefikfgffff...........d---cjhcdaa
(PID.TID 0000.0001) //     18 d---d.......kglggvliaaaibbcaaeaiv++...qqzolhecccfcccfdgkaabcdfccdeeikgfgffdd+..........d---djhd---
(PID.TID 0000.0001) //     17 c---c.......l.feewlfaaaoaa----aiv.....qqnllslmlofmlofcdbaacceffffhhligfigeddj.........hd---ckhc---
(PID.TID 0000.0001) //     16 ba--c......tn.ddgnlfdaaqa-----lv.......vnllvllnwvlnwv--accivomfffhilhgfffeddjf........re--aeigba--
(PID.TID 0000.0001) //     15 b--dpz....+ll.ccdfhmdddlc----av.........otsxoomv-omv---abccddfihgijkhgfffeejfff......+fd---ckfb--d
(PID.TID 0000.0001) //     14 c--mcl....weeqbaafilkfend--eagy.........hhstofft-fft----aacdheefijkmjhhjijiffff.....zlfdaaadlfc--m
(PID.TID 0000.0001) //     13 cclbbg....nccobaaiddgkffqrqeaal.........eeutqfft-fft------aaceeffhijlkjhhigfffq....+jgfodccflhcclb
(PID.TID 0000.0001) //     12 hgaaacw+iiicclemhdddfliigfdcaabfaaaz....ccsurqpc-qpc--------abcifffikiiihhggff.....kbbbdfffglhhgaa
(PID.TID 0000.0001) //     11 gcaaacbbifccennhbbdefnihgfdccaaaa----..dcccnt.nca.ncab-------aabcdfilhggjiggff....l---abcefjlkgcaa
(PID.TID 0000.0001) //     10 fcaaccbdaacfrllfbbdegkmmljhfdddba----d.dcccfx.nyr.nyrebaba----abcdgilhfeegijgi..+w--aa-abcfilkfcaa
(PID.TID 0000.0001) //      9 ffcdcccaaaoqsolfdeehikihhlllgfedcccccdmdcccf.vyfavyfaaaaaaaa--abdehmjhfeeefglv.++w-----abcdfklffcd
(PID.TID 0000.0001) //      8 iffjklcaafddffeeccvznkfffhhhlkjifgjkkfeeddfsyvcaavcaaaaaaccdcccdfgjligedbbceg+.++xffn--cfddefliffj
(PID.TID 0000.0001) //      7 mqnnbbkkf--bmbaabbgtykfddeffeeddccdfhlffeelfbaaaaaaaaaacddeghgjgjlligeddaaabedfiiiiiisvkfkecchmqnn
(PID.TID 0000.0001) //      6 ca-------------aabcelttdddedddddccccdfkkiiffbaaaaaaaabcdgimmkmefecaaabbbaaabbdfiiiiispmmregifcca--
(PID.TID 0000.0001) //      5 -------a-------aaccehhhiddeddddddcccdfiikomodddefddefffmlmigedccaaaaaaaababbbdfiijsqgeccccbaa-----
(PID.TID 0000.0001) //      4 -ahebaabbbbbeihffgijiiiijpywnnpokkomkiiijmmmolkomlkommmgffeeedccaaaaaabbcccefhmz..yjgeccccbaa--ahe
(PID.TID 0000.0001) //      3 ffhhrpjiiwyy............................yxotmjjjjjjjjgfeeeeeeddeffffheddeghjkyy..yqjgeddccdbbgffhh
(PID.TID 0000.0001) //      2 ............................................zyxxmyxxmgfeeefefgimnpwwwy..+zyy.....yyyyoiiihhz+.....
(PID.TID 0000.0001) //      1 ..................................................................................................
(PID.TID 0000.0001) //      0 qlloqz+.++++zzz++++++......................................................................+++qllo
(PID.TID 0000.0001) //     -1 slloorzzzzzzzzz+...++.........................................................yxxz........+zvusllo
(PID.TID 0000.0001) // =======================================================
(PID.TID 0000.0001) // END OF FIELD                                          =
(PID.TID 0000.0001) // =======================================================
(PID.TID 0000.0001) 
(PID.TID 0000.0001) // =======================================================
(PID.TID 0000.0001) // Field Model Ro_surf (ini_masks_etc) at iteration          1
(PID.TID 0000.0001) // CMIN =          1.000000000000000E+32
(PID.TID 0000.0001) // CMAX =         -1.000000000000000E+32
(PID.TID 0000.0001) // CINT =          0.000000000000000E+00
(PID.TID 0000.0001) // SYMBOLS (CMIN->CMAX): -abcdefghijklmnopqrstuvwxyz+
(PID.TID 0000.0001) //                  0.0: .
(PID.TID 0000.0001) // RANGE I (Lo:Hi:Step):(  -1:  92:   1)
(PID.TID 0000.0001) // RANGE J (Lo:Hi:Step):(  42:  -1:  -1)
(PID.TID 0000.0001) // RANGE K (Lo:Hi:Step):(   1:   1:   1)
(PID.TID 0000.0001) // =======================================================
(PID.TID 0000.0001) // =======================================================
(PID.TID 0000.0001) // END OF FIELD                                          =
(PID.TID 0000.0001) // =======================================================
(PID.TID 0000.0001) 
(PID.TID 0000.0001) // =======================================================
(PID.TID 0000.0001) // Field hFacC at iteration          1
(PID.TID 0000.0001) // CMIN =          1.000000000000000E+00
(PID.TID 0000.0001) // CMAX =          1.000000000000000E+00
(PID.TID 0000.0001) // CINT =          0.000000000000000E+00
(PID.TID 0000.0001) // SYMBOLS (CMIN->CMAX): -abcdefghijklmnopqrstuvwxyz+
(PID.TID 0000.0001) //                  0.0: .
(PID.TID 0000.0001) // RANGE I (Lo:Hi:Step):(  -1:  92:   1)
(PID.TID 0000.0001) // RANGE J (Lo:Hi:Step):(  42:  -1:  -1)
(PID.TID 0000.0001) // RANGE K (Lo:Hi:Step):(   1:   1:   1)
(PID.TID 0000.0001) // =======================================================
(PID.TID 0000.0001) // =======================================================
(PID.TID 0000.0001) // END OF FIELD                                          =
(PID.TID 0000.0001) // =======================================================
(PID.TID 0000.0001) 
(PID.TID 0000.0001) // =======================================================
(PID.TID 0000.0001) // Field hFacW at iteration          1
(PID.TID 0000.0001) // CMIN =          1.000000000000000E+00
(PID.TID 0000.0001) // CMAX =          1.000000000000000E+00
(PID.TID 0000.0001) // CINT =          0.000000000000000E+00
(PID.TID 0000.0001) // SYMBOLS (CMIN->CMAX): -abcdefghijklmnopqrstuvwxyz+
(PID.TID 0000.0001) //                  0.0: .
(PID.TID 0000.0001) // RANGE I (Lo:Hi:Step):(  -1:  92:   1)
(PID.TID 0000.0001) // RANGE J (Lo:Hi:Step):(  42:  -1:  -1)
(PID.TID 0000.0001) // RANGE K (Lo:Hi:Step):(   1:   1:   1)
(PID.TID 0000.0001) // =======================================================
(PID.TID 0000.0001) // =======================================================
(PID.TID 0000.0001) // END OF FIELD                                          =
(PID.TID 0000.0001) // =======================================================
(PID.TID 0000.0001) 
(PID.TID 0000.0001) // =======================================================
(PID.TID 0000.0001) // Field hFacS at iteration          1
(PID.TID 0000.0001) // CMIN =          1.000000000000000E+00
(PID.TID 0000.0001) // CMAX =          1.000000000000000E+00
(PID.TID 0000.0001) // CINT =          0.000000000000000E+00
(PID.TID 0000.0001) // SYMBOLS (CMIN->CMAX): -abcdefghijklmnopqrstuvwxyz+
(PID.TID 0000.0001) //                  0.0: .
(PID.TID 0000.0001) // RANGE I (Lo:Hi:Step):(  -1:  92:   1)
(PID.TID 0000.0001) // RANGE J (Lo:Hi:Step):(  42:  -1:  -1)
(PID.TID 0000.0001) // RANGE K (Lo:Hi:Step):(   1:   1:   1)
(PID.TID 0000.0001) // =======================================================
(PID.TID 0000.0001) // =======================================================
(PID.TID 0000.0001) // END OF FIELD                                          =
(PID.TID 0000.0001) // =======================================================
(PID.TID 0000.0001) 
(PID.TID 0000.0001) %MON surfExpanfCori_max           =   1.4265546244797E-04
(PID.TID 0000.0001) %MON surfExpanfCori_min           =  -1.4265546244797E-04
(PID.TID 0000.0001) %MON surfExpanfCori_mean          =   4.7801269115805E-19
(PID.TID 0000.0001) %MON surfExpanfCori_sd            =   9.6599226301546E-05
(PID.TID 0000.0001) %MON surfExpanfCoriG_max          =   1.4151032568025E-04
(PID.TID 0000.0001) %MON surfExpanfCoriG_min          =  -1.4362679550910E-04
(PID.TID 0000.0001) %MON surfExpanfCoriG_mean         =  -3.5906698877273E-06
(PID.TID 0000.0001) %MON surfExpanfCoriG_sd           =   9.6548915696246E-05
(PID.TID 0000.0001) %MON surfExpanfCoriCos_max        =   1.4575362704741E-04
(PID.TID 0000.0001) %MON surfExpanfCoriCos_min        =   3.0322354601388E-05
(PID.TID 0000.0001) %MON surfExpanfCoriCos_mean       =   1.0288600773633E-04
(PID.TID 0000.0001) %MON surfExpanfCoriCos_sd         =   3.6784304327266E-05
(PID.TID 0000.0001) INI_CG2D: CG2D normalisation factor =  6.5682677425711703E-05
(PID.TID 0000.0001) 
(PID.TID 0000.0001)  MDS_READ_FIELD: opening global file: lev_t.bin
(PID.TID 0000.0001)  MDS_READ_FIELD: opening global file: lev_s.bin
(PID.TID 0000.0001) Start initial hydrostatic pressure computation
(PID.TID 0000.0001) Pressure is predetermined for buoyancyRelation OCEANIC
(PID.TID 0000.0001) 
(PID.TID 0000.0001)  MDS_READ_FIELD: opening global file: trenberth_taux.bin
(PID.TID 0000.0001)  MDS_READ_FIELD: opening global file: trenberth_tauy.bin
(PID.TID 0000.0001)  MDS_READ_FIELD: opening global file: ncep_qnet.bin
(PID.TID 0000.0001)  MDS_READ_FIELD: opening global file: lev_sst.bin
(PID.TID 0000.0001)  MDS_READ_FIELD: opening global file: lev_sss.bin
(PID.TID 0000.0001) // =======================================================
(PID.TID 0000.0001) // Model current state
(PID.TID 0000.0001) // =======================================================
(PID.TID 0000.0001) 
S/R EXTERNAL_FIELDS_LOAD: Reading new data:   12    1         0  0.000000000000E+00
(PID.TID 0000.0001)  MDS_READ_FIELD: opening global file: trenberth_taux.bin
(PID.TID 0000.0001)  MDS_READ_FIELD: opening global file: trenberth_taux.bin
(PID.TID 0000.0001)  MDS_READ_FIELD: opening global file: trenberth_tauy.bin
(PID.TID 0000.0001)  MDS_READ_FIELD: opening global file: trenberth_tauy.bin
(PID.TID 0000.0001)  MDS_READ_FIELD: opening global file: ncep_qnet.bin
(PID.TID 0000.0001)  MDS_READ_FIELD: opening global file: ncep_qnet.bin
(PID.TID 0000.0001)  MDS_READ_FIELD: opening global file: lev_sst.bin
(PID.TID 0000.0001)  MDS_READ_FIELD: opening global file: lev_sst.bin
(PID.TID 0000.0001)  MDS_READ_FIELD: opening global file: lev_sss.bin
(PID.TID 0000.0001)  MDS_READ_FIELD: opening global file: lev_sss.bin
time,SST,SSS,fu,fv,Q,E-P,i0,i1,a,b =   0.0000E+00  2.4878E+01  3.5166E+01 -1.0994E-02  2.9853E-02 -6.4581E+01  0.0000E+00    12     1  5.0000E-01  5.0000E-01
time,fu0,fu1,fu =   0.0000E+00 -1.3840E-02 -8.1474E-03 -1.0994E-02  5.000000000000000E-01  5.000000000000000E-01
(PID.TID 0000.0001)  MDS_READ_FIELD: opening file: xx_hfluxm.0000000000.001.001.data
(PID.TID 0000.0001)  MDS_READ_FIELD: opening file: xx_hfluxm.0000000000.002.001.data
(PID.TID 0000.0001)  MDS_READ_FIELD: opening file: xx_hfluxm.0000000000.001.002.data
(PID.TID 0000.0001)  MDS_READ_FIELD: opening file: xx_hfluxm.0000000000.002.002.data
 cg2d: Sum(rhs),rhsMax =   4.21884749357559E-15  2.54952604282385E+00
time,SST,SSS,fu,fv,Q,E-P,i0,i1,a,b =   8.6400E+04  2.4948E+01  3.5159E+01 -1.0804E-02  2.9462E-02 -6.4589E+01  0.0000E+00    12     1  5.3333E-01  4.6667E-01
time,fu0,fu1,fu =   8.6400E+04 -1.3840E-02 -8.1474E-03 -1.0804E-02  5.333333333333333E-01  4.666666666666667E-01
 cg2d: Sum(rhs),rhsMax =   3.33066907387547E-15  2.62443215722193E+00
time,SST,SSS,fu,fv,Q,E-P,i0,i1,a,b =   1.7280E+05  2.5017E+01  3.5152E+01 -1.0614E-02  2.9071E-02 -6.4598E+01  0.0000E+00    12     1  5.6667E-01  4.3333E-01
time,fu0,fu1,fu =   1.7280E+05 -1.3840E-02 -8.1474E-03 -1.0614E-02  5.666666666666667E-01  4.333333333333333E-01
 cg2d: Sum(rhs),rhsMax =  -1.06581410364015E-14  2.39923446840279E+00
time,SST,SSS,fu,fv,Q,E-P,i0,i1,a,b =   2.5920E+05  2.5087E+01  3.5144E+01 -1.0425E-02  2.8680E-02 -6.4606E+01  0.0000E+00    12     1  6.0000E-01  4.0000E-01
time,fu0,fu1,fu =   2.5920E+05 -1.3840E-02 -8.1474E-03 -1.0425E-02  6.000000000000000E-01  4.000000000000000E-01
 cg2d: Sum(rhs),rhsMax =  -5.32907051820075E-15  2.21574359151345E+00
time,SST,SSS,fu,fv,Q,E-P,i0,i1,a,b =   3.4560E+05  2.5157E+01  3.5137E+01 -1.0235E-02  2.8288E-02 -6.4615E+01  0.0000E+00    12     1  6.3333E-01  3.6667E-01
time,fu0,fu1,fu =   3.4560E+05 -1.3840E-02 -8.1474E-03 -1.0235E-02  6.333333333333333E-01  3.666666666666667E-01
 cg2d: Sum(rhs),rhsMax =   8.88178419700125E-16  2.00995911954290E+00
time,SST,SSS,fu,fv,Q,E-P,i0,i1,a,b =   4.3200E+05  2.5226E+01  3.5130E+01 -1.0045E-02  2.7897E-02 -6.4623E+01  0.0000E+00    12     1  6.6667E-01  3.3333E-01
time,fu0,fu1,fu =   4.3200E+05 -1.3840E-02 -8.1474E-03 -1.0045E-02  6.666666666666666E-01  3.333333333333334E-01
 cg2d: Sum(rhs),rhsMax =   4.88498130835069E-15  1.78612610533014E+00
time,SST,SSS,fu,fv,Q,E-P,i0,i1,a,b =   5.1840E+05  2.5296E+01  3.5123E+01 -9.8553E-03  2.7506E-02 -6.4632E+01  0.0000E+00    12     1  7.0000E-01  3.0000E-01
time,fu0,fu1,fu =   5.1840E+05 -1.3840E-02 -8.1474E-03 -9.8553E-03  7.000000000000000E-01  3.000000000000000E-01
 cg2d: Sum(rhs),rhsMax =   4.88498130835069E-15  1.55419822260048E+00
time,SST,SSS,fu,fv,Q,E-P,i0,i1,a,b =   6.0480E+05  2.5366E+01  3.5115E+01 -9.6655E-03  2.7114E-02 -6.4640E+01  0.0000E+00    12     1  7.3333E-01  2.6667E-01
time,fu0,fu1,fu =   6.0480E+05 -1.3840E-02 -8.1474E-03 -9.6655E-03  7.333333333333333E-01  2.666666666666667E-01
 cg2d: Sum(rhs),rhsMax =   3.55271367880050E-14  1.32823755952144E+00
time,SST,SSS,fu,fv,Q,E-P,i0,i1,a,b =   6.9120E+05  2.5435E+01  3.5108E+01 -9.4758E-03  2.6723E-02 -6.4649E+01  0.0000E+00    12     1  7.6667E-01  2.3333E-01
time,fu0,fu1,fu =   6.9120E+05 -1.3840E-02 -8.1474E-03 -9.4758E-03  7.666666666666667E-01  2.333333333333333E-01
 cg2d: Sum(rhs),rhsMax =   1.77635683940025E-15  1.15613808765664E+00
time,SST,SSS,fu,fv,Q,E-P,i0,i1,a,b =   7.7760E+05  2.5505E+01  3.5101E+01 -9.2860E-03  2.6332E-02 -6.4657E+01  0.0000E+00    12     1  8.0000E-01  2.0000E-01
time,fu0,fu1,fu =   7.7760E+05 -1.3840E-02 -8.1474E-03 -9.2860E-03  8.000000000000000E-01  2.000000000000000E-01
 cg2d: Sum(rhs),rhsMax =   1.04360964314765E-14  1.08384893708264E+00
(PID.TID 0000.0001) %CHECKPOINT        10 ckptA
(PID.TID 0000.0001)  MDS_READ_FIELD: opening global file: lev_t_an.bin
 --> objf_test(bi,bj)   =  0.000000000000000E+00
 --> objf_tracer(bi,bj) =  0.000000000000000E+00
 --> objf_atl(bi,bj)    =  0.000000000000000E+00
 --> objf_temp_tut(bi,bj)   =  0.141928142197238E+01
 --> objf_hflux_tut(bi,bj) =  0.685376854919853E-08
 --> objf_test(bi,bj)   =  0.000000000000000E+00
 --> objf_tracer(bi,bj) =  0.000000000000000E+00
 --> objf_atl(bi,bj)    =  0.000000000000000E+00
 --> objf_temp_tut(bi,bj)   =  0.185926149037286E+01
 --> objf_hflux_tut(bi,bj) =  0.000000000000000E+00
 --> objf_test(bi,bj)   =  0.000000000000000E+00
 --> objf_tracer(bi,bj) =  0.000000000000000E+00
 --> objf_atl(bi,bj)    =  0.000000000000000E+00
 --> objf_temp_tut(bi,bj)   =  0.140639570537807E+01
 --> objf_hflux_tut(bi,bj) =  0.000000000000000E+00
 --> objf_test(bi,bj)   =  0.000000000000000E+00
 --> objf_tracer(bi,bj) =  0.000000000000000E+00
 --> objf_atl(bi,bj)    =  0.000000000000000E+00
 --> objf_temp_tut(bi,bj)   =  0.151993756255463E+01
 --> objf_hflux_tut(bi,bj) =  0.000000000000000E+00
  local fc =  0.620487619398546E+01
 global fc =  0.620487619398546E+01
 ph-check fcpertplus =   6.20487619
(PID.TID 0000.0001)  MDS_READ_FIELD: opening file: xx_hfluxm.0000000000.001.001.data
(PID.TID 0000.0001)  MDS_READ_FIELD: opening file: xx_hfluxm.0000000000.002.001.data
(PID.TID 0000.0001)  MDS_READ_FIELD: opening file: xx_hfluxm.0000000000.001.002.data
(PID.TID 0000.0001)  MDS_READ_FIELD: opening file: xx_hfluxm.0000000000.002.002.data
 ph-check fcpertminus =   6.20487645
(PID.TID 0000.0001)  MDS_READ_FIELD: opening file: xx_hfluxm.0000000000.001.001.data
(PID.TID 0000.0001)  MDS_READ_FIELD: opening file: xx_hfluxm.0000000000.002.001.data
(PID.TID 0000.0001)  MDS_READ_FIELD: opening file: xx_hfluxm.0000000000.001.002.data
(PID.TID 0000.0001)  MDS_READ_FIELD: opening file: xx_hfluxm.0000000000.002.002.data
(PID.TID 0000.0001)  MDS_READ_FIELD: opening global file: bathymetry.bin
(PID.TID 0000.0001) // =======================================================
(PID.TID 0000.0001) // Field Model R_low (ini_masks_etc) at iteration          1
(PID.TID 0000.0001) // CMIN =         -5.200000000000000E+03
(PID.TID 0000.0001) // CMAX =         -1.200000000000000E+02
(PID.TID 0000.0001) // CINT =          1.881481481481482E+02
(PID.TID 0000.0001) // SYMBOLS (CMIN->CMAX): -abcdefghijklmnopqrstuvwxyz+
(PID.TID 0000.0001) //                  0.0: .
(PID.TID 0000.0001) // RANGE I (Lo:Hi:Step):(  -1:  92:   1)
(PID.TID 0000.0001) // RANGE J (Lo:Hi:Step):(  42:  -1:  -1)
(PID.TID 0000.0001) // RANGE K (Lo:Hi:Step):(   1:   1:   1)
(PID.TID 0000.0001) // =======================================================
(PID.TID 0000.0001) K =   1
(PID.TID 0000.0001) //                I=8       I=18      I=28      I=38      I=44      I=54      I=64      I=74      I=84
(PID.TID 0000.0001) // |--J--|101234567|901234567|901234567|901234567|901234567|567890123|567890123|567890123|567890123|56789012
(PID.TID 0000.0001) //     42 ............................................zyxxmyxxmgfeeefefgimnpwwwy..+zyy.....yyyyoiiihhz+.....
(PID.TID 0000.0001) //     41 ..................................................................................................
(PID.TID 0000.0001) //     40 qlloqz+.++++zzz++++++......................................................................+++qllo
(PID.TID 0000.0001) //     39 slloorzzzzzzzzz+...++.........................................................yxxz........+zvusllo
(PID.TID 0000.0001) //     38 mqpporzzzzzz+++...............................................................zxxy+......zyyvsmqpp
(PID.TID 0000.0001) //     37 mmmuz......................................................................++...zy+...yttyy.+smmmu
(PID.TID 0000.0001) //     36 utt+.........................................mm++mm++....................+++++++znmm.yoowssvuyutt+
(PID.TID 0000.0001) //     35 ++++.................................+zzz..rrmmkkmmkk+...+gghn...........+++....+nmiijlsoopuww++++
(PID.TID 0000.0001) //     34 .....................................+vvy.ggqyxv+yxv+y.ccdffhim..................+nihhikkihhm+....
(PID.TID 0000.0001) //     33 +.....................................uuz---h----------aaabdefin+.................zqvddflifffw+...
(PID.TID 0000.0001) //     32 +.....................................+t----h-------------acdfgnn................+++gdffkofffm+...
(PID.TID 0000.0001) //     31 ......................................-----ad------------abddegil..............qbaafccdhqqgddm....
(PID.TID 0000.0001) //     30 .....................................f----b--b---b------------abd............zfbb--fbcdosjfddi....
(PID.TID 0000.0001) //     29 ...................................tu----e---fjg-fjg----------abdf...........eaac--abfmijaadgi....
(PID.TID 0000.0001) //     28 .................................+xfl-----------------------bdedefi.........qbaa---aemfbbaaejz....
(PID.TID 0000.0001) //     27 ................xx..............+wfgfpf--------ea--eallc---bbbccefgi...+++x.qb-----akfa---ah......
(PID.TID 0000.0001) //     26 ................xnn...........+vd---dna------a--aa--aicfna---aabdfghku.++xssuy-----bgca---ci......
(PID.TID 0000.0001) //     25 ................iiik...oo+...+ivd---doaa-bc--ilglilglf--aa---aabcghhkll...ssum+xaaacjbaabdjk......
(PID.TID 0000.0001) //     24 ..............xnheeft.kkk+...uii.aagdm----aa---------a-------bbbcdefjljjju.zummwwbbchba--abi......
(PID.TID 0000.0001) //     23 ..............xgheefp.iikw...uuw..fihi----fed---------eaaa--bbbbcdfflkjiiiq....zykccefa--abd......
(PID.TID 0000.0001) //     22 uss...........bbelffslffkk...zz.wqkeeqoheccdfa---a-----egabaabcdddegghliiiqq......xeeehheehccquss.
(PID.TID 0000.0001) //     21 bbeir........nbbcdjhqdddiiz.....wqfeelgghmedea---a-----bibbcddddddefghklnqoo........ieeflhgcccbbei
(PID.TID 0000.0001) //     20 bbder.......ldcccdgkccccidd......z.vkkktqqhegg---g----aaacddddddddefghkiiijl.........nhfa--gfcbbde
(PID.TID 0000.0001) //     19 cdaaf.......kddosggpaaaibbccx...+z+.....r+nlec---c---agaaabcddccddefikfgffff...........d---cjhcdaa
(PID.TID 0000.0001) //     22 uss...........bbelffslffkk...zz.wqkeeqoheccdfa---a-----egabaabcdddegghliiiqq......xeeehheehccquss.
(PID.TID 0000.0001) //     21 bbeir........nbbcdjhqdddiiz.....wqfeelgghmedea---a-----bibbcddddddefghklnqoo........ieeflhgcccbbei
(PID.TID 0000.0001) //     20 bbder.......ldcccdgkccccidd......z.vkkktqqhegg---g----aaacddddddddefghkiiijl.........nhfa--gfcbbde
(PID.TID 0000.0001) //     19 cdaaf.......kddosggpaaaibbccx...+z+.....r+nlec---c---agaaabcddccddefikfgffff...........d---cjhcdaa
(PID.TID 0000.0001) //     18 d---d.......kglggvliaaaibbcaaeaiv++...qqzolhecccfcccfdgkaabcdfccdeeikgfgffdd+..........d---djhd---
(PID.TID 0000.0001) //     17 c---c.......l.feewlfaaaoaa----aiv.....qqnllslmlofmlofcdbaacceffffhhligfigeddj.........hd---ckhc---
(PID.TID 0000.0001) //     16 ba--c......tn.ddgnlfdaaqa-----lv.......vnllvllnwvlnwv--accivomfffhilhgfffeddjf........re--aeigba--
(PID.TID 0000.0001) //     15 b--dpz....+ll.ccdfhmdddlc----av.........otsxoomv-omv---abccddfihgijkhgfffeejfff......+fd---ckfb--d
(PID.TID 0000.0001) //     14 c--mcl....weeqbaafilkfend--eagy.........hhstofft-fft----aacdheefijkmjhhjijiffff.....zlfdaaadlfc--m
(PID.TID 0000.0001) //     13 cclbbg....nccobaaiddgkffqrqeaal.........eeutqfft-fft------aaceeffhijlkjhhigfffq....+jgfodccflhcclb
(PID.TID 0000.0001) //     12 hgaaacw+iiicclemhdddfliigfdcaabfaaaz....ccsurqpc-qpc--------abcifffikiiihhggff.....kbbbdfffglhhgaa
(PID.TID 0000.0001) //     11 gcaaacbbifccennhbbdefnihgfdccaaaa----..dcccnt.nca.ncab-------aabcdfilhggjiggff....l---abcefjlkgcaa
(PID.TID 0000.0001) //     10 fcaaccbdaacfrllfbbdegkmmljhfdddba----d.dcccfx.nyr.nyrebaba----abcdgilhfeegijgi..+w--aa-abcfilkfcaa
(PID.TID 0000.0001) //      9 ffcdcccaaaoqsolfdeehikihhlllgfedcccccdmdcccf.vyfavyfaaaaaaaa--abdehmjhfeeefglv.++w-----abcdfklffcd
(PID.TID 0000.0001) //      8 iffjklcaafddffeeccvznkfffhhhlkjifgjkkfeeddfsyvcaavcaaaaaaccdcccdfgjligedbbceg+.++xffn--cfddefliffj
(PID.TID 0000.0001) //      7 mqnnbbkkf--bmbaabbgtykfddeffeeddccdfhlffeelfbaaaaaaaaaacddeghgjgjlligeddaaabedfiiiiiisvkfkecchmqnn
(PID.TID 0000.0001) //      6 ca-------------aabcelttdddedddddccccdfkkiiffbaaaaaaaabcdgimmkmefecaaabbbaaabbdfiiiiispmmregifcca--
(PID.TID 0000.0001) //      5 -------a-------aaccehhhiddeddddddcccdfiikomodddefddefffmlmigedccaaaaaaaababbbdfiijsqgeccccbaa-----
(PID.TID 0000.0001) //      4 -ahebaabbbbbeihffgijiiiijpywnnpokkomkiiijmmmolkomlkommmgffeeedccaaaaaabbcccefhmz..yjgeccccbaa--ahe
(PID.TID 0000.0001) //      3 ffhhrpjiiwyy............................yxotmjjjjjjjjgfeeeeeeddeffffheddeghjkyy..yqjgeddccdbbgffhh
(PID.TID 0000.0001) //      2 ............................................zyxxmyxxmgfeeefefgimnpwwwy..+zyy.....yyyyoiiihhz+.....
(PID.TID 0000.0001) //      1 ..................................................................................................
(PID.TID 0000.0001) //      0 qlloqz+.++++zzz++++++......................................................................+++qllo
(PID.TID 0000.0001) //     -1 slloorzzzzzzzzz+...++.........................................................yxxz........+zvusllo
(PID.TID 0000.0001) // =======================================================
(PID.TID 0000.0001) // END OF FIELD                                          =
(PID.TID 0000.0001) // =======================================================
(PID.TID 0000.0001) 
(PID.TID 0000.0001) // =======================================================
(PID.TID 0000.0001) // Field Model Ro_surf (ini_masks_etc) at iteration          1
(PID.TID 0000.0001) // CMIN =          1.000000000000000E+32
(PID.TID 0000.0001) // CMAX =         -1.000000000000000E+32
(PID.TID 0000.0001) // CINT =          0.000000000000000E+00
(PID.TID 0000.0001) // SYMBOLS (CMIN->CMAX): -abcdefghijklmnopqrstuvwxyz+
(PID.TID 0000.0001) //                  0.0: .
(PID.TID 0000.0001) // RANGE I (Lo:Hi:Step):(  -1:  92:   1)
(PID.TID 0000.0001) // RANGE J (Lo:Hi:Step):(  42:  -1:  -1)
(PID.TID 0000.0001) // RANGE K (Lo:Hi:Step):(   1:   1:   1)
(PID.TID 0000.0001) // =======================================================
(PID.TID 0000.0001) // =======================================================
(PID.TID 0000.0001) // END OF FIELD                                          =
(PID.TID 0000.0001) // =======================================================
(PID.TID 0000.0001) 
(PID.TID 0000.0001) // =======================================================
(PID.TID 0000.0001) // Field hFacC at iteration          1
(PID.TID 0000.0001) // CMIN =          1.000000000000000E+00
(PID.TID 0000.0001) // CMAX =          1.000000000000000E+00
(PID.TID 0000.0001) // CINT =          0.000000000000000E+00
(PID.TID 0000.0001) // SYMBOLS (CMIN->CMAX): -abcdefghijklmnopqrstuvwxyz+
(PID.TID 0000.0001) //                  0.0: .
(PID.TID 0000.0001) // RANGE I (Lo:Hi:Step):(  -1:  92:   1)
(PID.TID 0000.0001) // RANGE J (Lo:Hi:Step):(  42:  -1:  -1)
(PID.TID 0000.0001) // RANGE K (Lo:Hi:Step):(   1:   1:   1)
(PID.TID 0000.0001) // =======================================================
(PID.TID 0000.0001) // =======================================================
(PID.TID 0000.0001) // END OF FIELD                                          =
(PID.TID 0000.0001) // =======================================================
(PID.TID 0000.0001) 
(PID.TID 0000.0001) // =======================================================
(PID.TID 0000.0001) // Field hFacW at iteration          1
(PID.TID 0000.0001) // CMIN =          1.000000000000000E+00
(PID.TID 0000.0001) // CMAX =          1.000000000000000E+00
(PID.TID 0000.0001) // CINT =          0.000000000000000E+00
(PID.TID 0000.0001) // SYMBOLS (CMIN->CMAX): -abcdefghijklmnopqrstuvwxyz+
(PID.TID 0000.0001) //                  0.0: .
(PID.TID 0000.0001) // RANGE I (Lo:Hi:Step):(  -1:  92:   1)
(PID.TID 0000.0001) // RANGE J (Lo:Hi:Step):(  42:  -1:  -1)
(PID.TID 0000.0001) // RANGE K (Lo:Hi:Step):(   1:   1:   1)
(PID.TID 0000.0001) // =======================================================
(PID.TID 0000.0001) // =======================================================
(PID.TID 0000.0001) // END OF FIELD                                          =
(PID.TID 0000.0001) // =======================================================
(PID.TID 0000.0001) 
(PID.TID 0000.0001) // =======================================================
(PID.TID 0000.0001) // Field hFacS at iteration          1
(PID.TID 0000.0001) // CMIN =          1.000000000000000E+00
(PID.TID 0000.0001) // CMAX =          1.000000000000000E+00
(PID.TID 0000.0001) // CINT =          0.000000000000000E+00
(PID.TID 0000.0001) // SYMBOLS (CMIN->CMAX): -abcdefghijklmnopqrstuvwxyz+
(PID.TID 0000.0001) //                  0.0: .
(PID.TID 0000.0001) // RANGE I (Lo:Hi:Step):(  -1:  92:   1)
(PID.TID 0000.0001) // RANGE J (Lo:Hi:Step):(  42:  -1:  -1)
(PID.TID 0000.0001) // RANGE K (Lo:Hi:Step):(   1:   1:   1)
(PID.TID 0000.0001) // =======================================================
(PID.TID 0000.0001) // =======================================================
(PID.TID 0000.0001) // END OF FIELD                                          =
(PID.TID 0000.0001) // =======================================================
(PID.TID 0000.0001) 
(PID.TID 0000.0001) %MON surfExpanfCori_max           =   1.4265546244797E-04
(PID.TID 0000.0001) %MON surfExpanfCori_min           =  -1.4265546244797E-04
(PID.TID 0000.0001) %MON surfExpanfCori_mean          =   4.7801269115805E-19
(PID.TID 0000.0001) %MON surfExpanfCori_sd            =   9.6599226301546E-05
(PID.TID 0000.0001) %MON surfExpanfCoriG_max          =   1.4151032568025E-04
(PID.TID 0000.0001) %MON surfExpanfCoriG_min          =  -1.4362679550910E-04
(PID.TID 0000.0001) %MON surfExpanfCoriG_mean         =  -3.5906698877273E-06
(PID.TID 0000.0001) %MON surfExpanfCoriG_sd           =   9.6548915696246E-05
(PID.TID 0000.0001) %MON surfExpanfCoriCos_max        =   1.4575362704741E-04
(PID.TID 0000.0001) %MON surfExpanfCoriCos_min        =   3.0322354601388E-05
(PID.TID 0000.0001) %MON surfExpanfCoriCos_mean       =   1.0288600773633E-04
(PID.TID 0000.0001) %MON surfExpanfCoriCos_sd         =   3.6784304327266E-05
(PID.TID 0000.0001) INI_CG2D: CG2D normalisation factor =  6.5682677425711703E-05
(PID.TID 0000.0001) 
(PID.TID 0000.0001)  MDS_READ_FIELD: opening global file: lev_t.bin
(PID.TID 0000.0001)  MDS_READ_FIELD: opening global file: lev_s.bin
(PID.TID 0000.0001) Start initial hydrostatic pressure computation
(PID.TID 0000.0001) Pressure is predetermined for buoyancyRelation OCEANIC
(PID.TID 0000.0001) 
(PID.TID 0000.0001)  MDS_READ_FIELD: opening global file: trenberth_taux.bin
(PID.TID 0000.0001)  MDS_READ_FIELD: opening global file: trenberth_tauy.bin
(PID.TID 0000.0001)  MDS_READ_FIELD: opening global file: ncep_qnet.bin
(PID.TID 0000.0001)  MDS_READ_FIELD: opening global file: lev_sst.bin
(PID.TID 0000.0001)  MDS_READ_FIELD: opening global file: lev_sss.bin
(PID.TID 0000.0001) // =======================================================
(PID.TID 0000.0001) // Model current state
(PID.TID 0000.0001) // =======================================================
(PID.TID 0000.0001) 
S/R EXTERNAL_FIELDS_LOAD: Reading new data:   12    1         0  0.000000000000E+00
(PID.TID 0000.0001)  MDS_READ_FIELD: opening global file: trenberth_taux.bin
(PID.TID 0000.0001)  MDS_READ_FIELD: opening global file: trenberth_taux.bin
(PID.TID 0000.0001)  MDS_READ_FIELD: opening global file: trenberth_tauy.bin
(PID.TID 0000.0001)  MDS_READ_FIELD: opening global file: trenberth_tauy.bin
(PID.TID 0000.0001)  MDS_READ_FIELD: opening global file: ncep_qnet.bin
(PID.TID 0000.0001)  MDS_READ_FIELD: opening global file: ncep_qnet.bin
(PID.TID 0000.0001)  MDS_READ_FIELD: opening global file: lev_sst.bin
(PID.TID 0000.0001)  MDS_READ_FIELD: opening global file: lev_sst.bin
(PID.TID 0000.0001)  MDS_READ_FIELD: opening global file: lev_sss.bin
(PID.TID 0000.0001)  MDS_READ_FIELD: opening global file: lev_sss.bin
time,SST,SSS,fu,fv,Q,E-P,i0,i1,a,b =   0.0000E+00  2.4878E+01  3.5166E+01 -1.0994E-02  2.9853E-02 -6.4581E+01  0.0000E+00    12     1  5.0000E-01  5.0000E-01
time,fu0,fu1,fu =   0.0000E+00 -1.3840E-02 -8.1474E-03 -1.0994E-02  5.000000000000000E-01  5.000000000000000E-01
(PID.TID 0000.0001)  MDS_READ_FIELD: opening file: xx_hfluxm.0000000000.001.001.data
(PID.TID 0000.0001)  MDS_READ_FIELD: opening file: xx_hfluxm.0000000000.002.001.data
(PID.TID 0000.0001)  MDS_READ_FIELD: opening file: xx_hfluxm.0000000000.001.002.data
(PID.TID 0000.0001)  MDS_READ_FIELD: opening file: xx_hfluxm.0000000000.002.002.data
 cg2d: Sum(rhs),rhsMax =   4.21884749357559E-15  2.54952604282385E+00
time,SST,SSS,fu,fv,Q,E-P,i0,i1,a,b =   8.6400E+04  2.4948E+01  3.5159E+01 -1.0804E-02  2.9462E-02 -6.4589E+01  0.0000E+00    12     1  5.3333E-01  4.6667E-01
time,fu0,fu1,fu =   8.6400E+04 -1.3840E-02 -8.1474E-03 -1.0804E-02  5.333333333333333E-01  4.666666666666667E-01
 cg2d: Sum(rhs),rhsMax =   3.33066907387547E-15  2.62443215722193E+00
time,SST,SSS,fu,fv,Q,E-P,i0,i1,a,b =   1.7280E+05  2.5017E+01  3.5152E+01 -1.0614E-02  2.9071E-02 -6.4598E+01  0.0000E+00    12     1  5.6667E-01  4.3333E-01
time,fu0,fu1,fu =   1.7280E+05 -1.3840E-02 -8.1474E-03 -1.0614E-02  5.666666666666667E-01  4.333333333333333E-01
 cg2d: Sum(rhs),rhsMax =   1.44328993201270E-15  2.39923446840243E+00
time,SST,SSS,fu,fv,Q,E-P,i0,i1,a,b =   2.5920E+05  2.5087E+01  3.5144E+01 -1.0425E-02  2.8680E-02 -6.4606E+01  0.0000E+00    12     1  6.0000E-01  4.0000E-01
time,fu0,fu1,fu =   2.5920E+05 -1.3840E-02 -8.1474E-03 -1.0425E-02  6.000000000000000E-01  4.000000000000000E-01
 cg2d: Sum(rhs),rhsMax =  -4.88498130835069E-15  2.21574359151279E+00
time,SST,SSS,fu,fv,Q,E-P,i0,i1,a,b =   3.4560E+05  2.5157E+01  3.5137E+01 -1.0235E-02  2.8288E-02 -6.4615E+01  0.0000E+00    12     1  6.3333E-01  3.6667E-01
time,fu0,fu1,fu =   3.4560E+05 -1.3840E-02 -8.1474E-03 -1.0235E-02  6.333333333333333E-01  3.666666666666667E-01
 cg2d: Sum(rhs),rhsMax =  -2.53130849614536E-14  2.00995911954168E+00
time,SST,SSS,fu,fv,Q,E-P,i0,i1,a,b =   4.3200E+05  2.5226E+01  3.5130E+01 -1.0045E-02  2.7897E-02 -6.4623E+01  0.0000E+00    12     1  6.6667E-01  3.3333E-01
time,fu0,fu1,fu =   4.3200E+05 -1.3840E-02 -8.1474E-03 -1.0045E-02  6.666666666666666E-01  3.333333333333334E-01
 cg2d: Sum(rhs),rhsMax =  -5.32907051820075E-15  1.78612610533129E+00
time,SST,SSS,fu,fv,Q,E-P,i0,i1,a,b =   5.1840E+05  2.5296E+01  3.5123E+01 -9.8553E-03  2.7506E-02 -6.4632E+01  0.0000E+00    12     1  7.0000E-01  3.0000E-01
time,fu0,fu1,fu =   5.1840E+05 -1.3840E-02 -8.1474E-03 -9.8553E-03  7.000000000000000E-01  3.000000000000000E-01
 cg2d: Sum(rhs),rhsMax =   3.10862446895044E-15  1.55419822260219E+00
time,SST,SSS,fu,fv,Q,E-P,i0,i1,a,b =   6.0480E+05  2.5366E+01  3.5115E+01 -9.6655E-03  2.7114E-02 -6.4640E+01  0.0000E+00    12     1  7.3333E-01  2.6667E-01
time,fu0,fu1,fu =   6.0480E+05 -1.3840E-02 -8.1474E-03 -9.6655E-03  7.333333333333333E-01  2.666666666666667E-01
 cg2d: Sum(rhs),rhsMax =   6.43929354282591E-14  1.32823755953100E+00
time,SST,SSS,fu,fv,Q,E-P,i0,i1,a,b =   6.9120E+05  2.5435E+01  3.5108E+01 -9.4758E-03  2.6723E-02 -6.4649E+01  0.0000E+00    12     1  7.6667E-01  2.3333E-01
time,fu0,fu1,fu =   6.9120E+05 -1.3840E-02 -8.1474E-03 -9.4758E-03  7.666666666666667E-01  2.333333333333333E-01
 cg2d: Sum(rhs),rhsMax =  -3.53050921830800E-14  1.15613808765062E+00
time,SST,SSS,fu,fv,Q,E-P,i0,i1,a,b =   7.7760E+05  2.5505E+01  3.5101E+01 -9.2860E-03  2.6332E-02 -6.4657E+01  0.0000E+00    12     1  8.0000E-01  2.0000E-01
time,fu0,fu1,fu =   7.7760E+05 -1.3840E-02 -8.1474E-03 -9.2860E-03  8.000000000000000E-01  2.000000000000000E-01
 cg2d: Sum(rhs),rhsMax =  -3.33066907387547E-15  1.08384893707243E+00
(PID.TID 0000.0001) %CHECKPOINT        10 ckptB
(PID.TID 0000.0001)  MDS_READ_FIELD: opening global file: lev_t_an.bin
 --> objf_test(bi,bj)   =  0.000000000000000E+00
 --> objf_tracer(bi,bj) =  0.000000000000000E+00
 --> objf_atl(bi,bj)    =  0.000000000000000E+00
 --> objf_temp_tut(bi,bj)   =  0.141928196273583E+01
 --> objf_hflux_tut(bi,bj) =  0.685376854919853E-08
 --> objf_test(bi,bj)   =  0.000000000000000E+00
 --> objf_tracer(bi,bj) =  0.000000000000000E+00
 --> objf_atl(bi,bj)    =  0.000000000000000E+00
 --> objf_temp_tut(bi,bj)   =  0.185926149039069E+01
 --> objf_hflux_tut(bi,bj) =  0.000000000000000E+00
 --> objf_test(bi,bj)   =  0.000000000000000E+00
 --> objf_tracer(bi,bj) =  0.000000000000000E+00
 --> objf_atl(bi,bj)    =  0.000000000000000E+00
 --> objf_temp_tut(bi,bj)   =  0.140639570537630E+01
 --> objf_hflux_tut(bi,bj) =  0.000000000000000E+00
 --> objf_test(bi,bj)   =  0.000000000000000E+00
 --> objf_tracer(bi,bj) =  0.000000000000000E+00
 --> objf_atl(bi,bj)    =  0.000000000000000E+00
 --> objf_temp_tut(bi,bj)   =  0.151993756255286E+01
 --> objf_hflux_tut(bi,bj) =  0.000000000000000E+00
  local fc =  0.620487673476323E+01
 global fc =  0.620487673476323E+01
(PID.TID 0000.0001)  MDS_READ_FIELD: opening file: xx_hfluxm.0000000000.001.001.data
(PID.TID 0000.0001)  MDS_READ_FIELD: opening file: xx_hfluxm.0000000000.002.001.data
(PID.TID 0000.0001)  MDS_READ_FIELD: opening file: xx_hfluxm.0000000000.001.002.data
(PID.TID 0000.0001)  MDS_READ_FIELD: opening file: xx_hfluxm.0000000000.002.002.data
grad-res -------------------------------
 grad-res     0    1   43    2    1    1    1    1   0.620487645063E+01 0.620487619399E+01 0.620487673476E+01
 grad-res     0    1    1    1  669    1    1    1   -.270388859258E-05 -.270388883283E-05 -.888553921552E-07
(PID.TID 0000.0001)   ADM  precision_derivative_cost =    6.20487645062636E+00
(PID.TID 0000.0001)   ADM  precision_derivative_grad =   -2.70388859257838E-06
 ph-grd  ierr ---------------------------
 ph-grd  ierr =  0, icomp =  1, ichknum =  1
 ph-grd -->hit<--  44 2 1 1
(PID.TID 0000.0001)  MDS_READ_FIELD: opening file: adxx_hfluxm.0000000000.001.001.data
(PID.TID 0000.0001)  MDS_READ_FIELD: opening file: adxx_hfluxm.0000000000.002.001.data
(PID.TID 0000.0001)  MDS_READ_FIELD: opening file: adxx_hfluxm.0000000000.001.002.data
(PID.TID 0000.0001)  MDS_READ_FIELD: opening file: adxx_hfluxm.0000000000.002.002.data
(PID.TID 0000.0001)  MDS_READ_FIELD: opening file: xx_hfluxm.0000000000.001.001.data
(PID.TID 0000.0001)  MDS_READ_FIELD: opening file: xx_hfluxm.0000000000.002.001.data
(PID.TID 0000.0001)  MDS_READ_FIELD: opening file: xx_hfluxm.0000000000.001.002.data
(PID.TID 0000.0001)  MDS_READ_FIELD: opening file: xx_hfluxm.0000000000.002.002.data
(PID.TID 0000.0001)  MDS_READ_FIELD: opening global file: bathymetry.bin
(PID.TID 0000.0001) // =======================================================
(PID.TID 0000.0001) // Field Model R_low (ini_masks_etc) at iteration          1
(PID.TID 0000.0001) // CMIN =         -5.200000000000000E+03
(PID.TID 0000.0001) // CMAX =         -1.200000000000000E+02
(PID.TID 0000.0001) // CINT =          1.881481481481482E+02
(PID.TID 0000.0001) // SYMBOLS (CMIN->CMAX): -abcdefghijklmnopqrstuvwxyz+
(PID.TID 0000.0001) //                  0.0: .
(PID.TID 0000.0001) // RANGE I (Lo:Hi:Step):(  -1:  92:   1)
(PID.TID 0000.0001) // RANGE J (Lo:Hi:Step):(  42:  -1:  -1)
(PID.TID 0000.0001) // RANGE K (Lo:Hi:Step):(   1:   1:   1)
(PID.TID 0000.0001) // =======================================================
(PID.TID 0000.0001) K =   1
(PID.TID 0000.0001) //                I=8       I=18      I=28      I=38      I=44      I=54      I=64      I=74      I=84
(PID.TID 0000.0001) // |--J--|101234567|901234567|901234567|901234567|901234567|567890123|567890123|567890123|567890123|56789012
(PID.TID 0000.0001) //     42 ............................................zyxxmyxxmgfeeefefgimnpwwwy..+zyy.....yyyyoiiihhz+.....
(PID.TID 0000.0001) //     41 ..................................................................................................
(PID.TID 0000.0001) //     40 qlloqz+.++++zzz++++++......................................................................+++qllo
(PID.TID 0000.0001) //     39 slloorzzzzzzzzz+...++.........................................................yxxz........+zvusllo
(PID.TID 0000.0001) //     38 mqpporzzzzzz+++...............................................................zxxy+......zyyvsmqpp
(PID.TID 0000.0001) //     37 mmmuz......................................................................++...zy+...yttyy.+smmmu
(PID.TID 0000.0001) //     36 utt+.........................................mm++mm++....................+++++++znmm.yoowssvuyutt+
(PID.TID 0000.0001) //     35 ++++.................................+zzz..rrmmkkmmkk+...+gghn...........+++....+nmiijlsoopuww++++
(PID.TID 0000.0001) //     34 .....................................+vvy.ggqyxv+yxv+y.ccdffhim..................+nihhikkihhm+....
(PID.TID 0000.0001) //     33 +.....................................uuz---h----------aaabdefin+.................zqvddflifffw+...
(PID.TID 0000.0001) //     32 +.....................................+t----h-------------acdfgnn................+++gdffkofffm+...
(PID.TID 0000.0001) //     31 ......................................-----ad------------abddegil..............qbaafccdhqqgddm....
(PID.TID 0000.0001) //     30 .....................................f----b--b---b------------abd............zfbb--fbcdosjfddi....
(PID.TID 0000.0001) //     29 ...................................tu----e---fjg-fjg----------abdf...........eaac--abfmijaadgi....
(PID.TID 0000.0001) //     28 .................................+xfl-----------------------bdedefi.........qbaa---aemfbbaaejz....
(PID.TID 0000.0001) //     27 ................xx..............+wfgfpf--------ea--eallc---bbbccefgi...+++x.qb-----akfa---ah......
(PID.TID 0000.0001) //     26 ................xnn...........+vd---dna------a--aa--aicfna---aabdfghku.++xssuy-----bgca---ci......
(PID.TID 0000.0001) //     25 ................iiik...oo+...+ivd---doaa-bc--ilglilglf--aa---aabcghhkll...ssum+xaaacjbaabdjk......
(PID.TID 0000.0001) //     24 ..............xnheeft.kkk+...uii.aagdm----aa---------a-------bbbcdefjljjju.zummwwbbchba--abi......
(PID.TID 0000.0001) //     23 ..............xgheefp.iikw...uuw..fihi----fed---------eaaa--bbbbcdfflkjiiiq....zykccefa--abd......
(PID.TID 0000.0001) //     22 uss...........bbelffslffkk...zz.wqkeeqoheccdfa---a-----egabaabcdddegghliiiqq......xeeehheehccquss.
(PID.TID 0000.0001) //     21 bbeir........nbbcdjhqdddiiz.....wqfeelgghmedea---a-----bibbcddddddefghklnqoo........ieeflhgcccbbei
(PID.TID 0000.0001) //     20 bbder.......ldcccdgkccccidd......z.vkkktqqhegg---g----aaacddddddddefghkiiijl.........nhfa--gfcbbde
(PID.TID 0000.0001) //     19 cdaaf.......kddosggpaaaibbccx...+z+.....r+nlec---c---agaaabcddccddefikfgffff...........d---cjhcdaa
(PID.TID 0000.0001) //     22 uss...........bbelffslffkk...zz.wqkeeqoheccdfa---a-----egabaabcdddegghliiiqq......xeeehheehccquss.
(PID.TID 0000.0001) //     21 bbeir........nbbcdjhqdddiiz.....wqfeelgghmedea---a-----bibbcddddddefghklnqoo........ieeflhgcccbbei
(PID.TID 0000.0001) //     20 bbder.......ldcccdgkccccidd......z.vkkktqqhegg---g----aaacddddddddefghkiiijl.........nhfa--gfcbbde
(PID.TID 0000.0001) //     19 cdaaf.......kddosggpaaaibbccx...+z+.....r+nlec---c---agaaabcddccddefikfgffff...........d---cjhcdaa
(PID.TID 0000.0001) //     18 d---d.......kglggvliaaaibbcaaeaiv++...qqzolhecccfcccfdgkaabcdfccdeeikgfgffdd+..........d---djhd---
(PID.TID 0000.0001) //     17 c---c.......l.feewlfaaaoaa----aiv.....qqnllslmlofmlofcdbaacceffffhhligfigeddj.........hd---ckhc---
(PID.TID 0000.0001) //     16 ba--c......tn.ddgnlfdaaqa-----lv.......vnllvllnwvlnwv--accivomfffhilhgfffeddjf........re--aeigba--
(PID.TID 0000.0001) //     15 b--dpz....+ll.ccdfhmdddlc----av.........otsxoomv-omv---abccddfihgijkhgfffeejfff......+fd---ckfb--d
(PID.TID 0000.0001) //     14 c--mcl....weeqbaafilkfend--eagy.........hhstofft-fft----aacdheefijkmjhhjijiffff.....zlfdaaadlfc--m
(PID.TID 0000.0001) //     13 cclbbg....nccobaaiddgkffqrqeaal.........eeutqfft-fft------aaceeffhijlkjhhigfffq....+jgfodccflhcclb
(PID.TID 0000.0001) //     12 hgaaacw+iiicclemhdddfliigfdcaabfaaaz....ccsurqpc-qpc--------abcifffikiiihhggff.....kbbbdfffglhhgaa
(PID.TID 0000.0001) //     11 gcaaacbbifccennhbbdefnihgfdccaaaa----..dcccnt.nca.ncab-------aabcdfilhggjiggff....l---abcefjlkgcaa
(PID.TID 0000.0001) //     10 fcaaccbdaacfrllfbbdegkmmljhfdddba----d.dcccfx.nyr.nyrebaba----abcdgilhfeegijgi..+w--aa-abcfilkfcaa
(PID.TID 0000.0001) //      9 ffcdcccaaaoqsolfdeehikihhlllgfedcccccdmdcccf.vyfavyfaaaaaaaa--abdehmjhfeeefglv.++w-----abcdfklffcd
(PID.TID 0000.0001) //      8 iffjklcaafddffeeccvznkfffhhhlkjifgjkkfeeddfsyvcaavcaaaaaaccdcccdfgjligedbbceg+.++xffn--cfddefliffj
(PID.TID 0000.0001) //      7 mqnnbbkkf--bmbaabbgtykfddeffeeddccdfhlffeelfbaaaaaaaaaacddeghgjgjlligeddaaabedfiiiiiisvkfkecchmqnn
(PID.TID 0000.0001) //      6 ca-------------aabcelttdddedddddccccdfkkiiffbaaaaaaaabcdgimmkmefecaaabbbaaabbdfiiiiispmmregifcca--
(PID.TID 0000.0001) //      5 -------a-------aaccehhhiddeddddddcccdfiikomodddefddefffmlmigedccaaaaaaaababbbdfiijsqgeccccbaa-----
(PID.TID 0000.0001) //      4 -ahebaabbbbbeihffgijiiiijpywnnpokkomkiiijmmmolkomlkommmgffeeedccaaaaaabbcccefhmz..yjgeccccbaa--ahe
(PID.TID 0000.0001) //      3 ffhhrpjiiwyy............................yxotmjjjjjjjjgfeeeeeeddeffffheddeghjkyy..yqjgeddccdbbgffhh
(PID.TID 0000.0001) //      2 ............................................zyxxmyxxmgfeeefefgimnpwwwy..+zyy.....yyyyoiiihhz+.....
(PID.TID 0000.0001) //      1 ..................................................................................................
(PID.TID 0000.0001) //      0 qlloqz+.++++zzz++++++......................................................................+++qllo
(PID.TID 0000.0001) //     -1 slloorzzzzzzzzz+...++.........................................................yxxz........+zvusllo
(PID.TID 0000.0001) // =======================================================
(PID.TID 0000.0001) // END OF FIELD                                          =
(PID.TID 0000.0001) // =======================================================
(PID.TID 0000.0001) 
(PID.TID 0000.0001) // =======================================================
(PID.TID 0000.0001) // Field Model Ro_surf (ini_masks_etc) at iteration          1
(PID.TID 0000.0001) // CMIN =          1.000000000000000E+32
(PID.TID 0000.0001) // CMAX =         -1.000000000000000E+32
(PID.TID 0000.0001) // CINT =          0.000000000000000E+00
(PID.TID 0000.0001) // SYMBOLS (CMIN->CMAX): -abcdefghijklmnopqrstuvwxyz+
(PID.TID 0000.0001) //                  0.0: .
(PID.TID 0000.0001) // RANGE I (Lo:Hi:Step):(  -1:  92:   1)
(PID.TID 0000.0001) // RANGE J (Lo:Hi:Step):(  42:  -1:  -1)
(PID.TID 0000.0001) // RANGE K (Lo:Hi:Step):(   1:   1:   1)
(PID.TID 0000.0001) // =======================================================
(PID.TID 0000.0001) // =======================================================
(PID.TID 0000.0001) // END OF FIELD                                          =
(PID.TID 0000.0001) // =======================================================
(PID.TID 0000.0001) 
(PID.TID 0000.0001) // =======================================================
(PID.TID 0000.0001) // Field hFacC at iteration          1
(PID.TID 0000.0001) // CMIN =          1.000000000000000E+00
(PID.TID 0000.0001) // CMAX =          1.000000000000000E+00
(PID.TID 0000.0001) // CINT =          0.000000000000000E+00
(PID.TID 0000.0001) // SYMBOLS (CMIN->CMAX): -abcdefghijklmnopqrstuvwxyz+
(PID.TID 0000.0001) //                  0.0: .
(PID.TID 0000.0001) // RANGE I (Lo:Hi:Step):(  -1:  92:   1)
(PID.TID 0000.0001) // RANGE J (Lo:Hi:Step):(  42:  -1:  -1)
(PID.TID 0000.0001) // RANGE K (Lo:Hi:Step):(   1:   1:   1)
(PID.TID 0000.0001) // =======================================================
(PID.TID 0000.0001) // =======================================================
(PID.TID 0000.0001) // END OF FIELD                                          =
(PID.TID 0000.0001) // =======================================================
(PID.TID 0000.0001) 
(PID.TID 0000.0001) // =======================================================
(PID.TID 0000.0001) // Field hFacW at iteration          1
(PID.TID 0000.0001) // CMIN =          1.000000000000000E+00
(PID.TID 0000.0001) // CMAX =          1.000000000000000E+00
(PID.TID 0000.0001) // CINT =          0.000000000000000E+00
(PID.TID 0000.0001) // SYMBOLS (CMIN->CMAX): -abcdefghijklmnopqrstuvwxyz+
(PID.TID 0000.0001) //                  0.0: .
(PID.TID 0000.0001) // RANGE I (Lo:Hi:Step):(  -1:  92:   1)
(PID.TID 0000.0001) // RANGE J (Lo:Hi:Step):(  42:  -1:  -1)
(PID.TID 0000.0001) // RANGE K (Lo:Hi:Step):(   1:   1:   1)
(PID.TID 0000.0001) // =======================================================
(PID.TID 0000.0001) // =======================================================
(PID.TID 0000.0001) // END OF FIELD                                          =
(PID.TID 0000.0001) // =======================================================
(PID.TID 0000.0001) 
(PID.TID 0000.0001) // =======================================================
(PID.TID 0000.0001) // Field hFacS at iteration          1
(PID.TID 0000.0001) // CMIN =          1.000000000000000E+00
(PID.TID 0000.0001) // CMAX =          1.000000000000000E+00
(PID.TID 0000.0001) // CINT =          0.000000000000000E+00
(PID.TID 0000.0001) // SYMBOLS (CMIN->CMAX): -abcdefghijklmnopqrstuvwxyz+
(PID.TID 0000.0001) //                  0.0: .
(PID.TID 0000.0001) // RANGE I (Lo:Hi:Step):(  -1:  92:   1)
(PID.TID 0000.0001) // RANGE J (Lo:Hi:Step):(  42:  -1:  -1)
(PID.TID 0000.0001) // RANGE K (Lo:Hi:Step):(   1:   1:   1)
(PID.TID 0000.0001) // =======================================================
(PID.TID 0000.0001) // =======================================================
(PID.TID 0000.0001) // END OF FIELD                                          =
(PID.TID 0000.0001) // =======================================================
(PID.TID 0000.0001) 
(PID.TID 0000.0001) %MON surfExpanfCori_max           =   1.4265546244797E-04
(PID.TID 0000.0001) %MON surfExpanfCori_min           =  -1.4265546244797E-04
(PID.TID 0000.0001) %MON surfExpanfCori_mean          =   4.7801269115805E-19
(PID.TID 0000.0001) %MON surfExpanfCori_sd            =   9.6599226301546E-05
(PID.TID 0000.0001) %MON surfExpanfCoriG_max          =   1.4151032568025E-04
(PID.TID 0000.0001) %MON surfExpanfCoriG_min          =  -1.4362679550910E-04
(PID.TID 0000.0001) %MON surfExpanfCoriG_mean         =  -3.5906698877273E-06
(PID.TID 0000.0001) %MON surfExpanfCoriG_sd           =   9.6548915696246E-05
(PID.TID 0000.0001) %MON surfExpanfCoriCos_max        =   1.4575362704741E-04
(PID.TID 0000.0001) %MON surfExpanfCoriCos_min        =   3.0322354601388E-05
(PID.TID 0000.0001) %MON surfExpanfCoriCos_mean       =   1.0288600773633E-04
(PID.TID 0000.0001) %MON surfExpanfCoriCos_sd         =   3.6784304327266E-05
(PID.TID 0000.0001) INI_CG2D: CG2D normalisation factor =  6.5682677425711703E-05
(PID.TID 0000.0001) 
(PID.TID 0000.0001)  MDS_READ_FIELD: opening global file: lev_t.bin
(PID.TID 0000.0001)  MDS_READ_FIELD: opening global file: lev_s.bin
(PID.TID 0000.0001) Start initial hydrostatic pressure computation
(PID.TID 0000.0001) Pressure is predetermined for buoyancyRelation OCEANIC
(PID.TID 0000.0001) 
(PID.TID 0000.0001)  MDS_READ_FIELD: opening global file: trenberth_taux.bin
(PID.TID 0000.0001)  MDS_READ_FIELD: opening global file: trenberth_tauy.bin
(PID.TID 0000.0001)  MDS_READ_FIELD: opening global file: ncep_qnet.bin
(PID.TID 0000.0001)  MDS_READ_FIELD: opening global file: lev_sst.bin
(PID.TID 0000.0001)  MDS_READ_FIELD: opening global file: lev_sss.bin
(PID.TID 0000.0001) // =======================================================
(PID.TID 0000.0001) // Model current state
(PID.TID 0000.0001) // =======================================================
(PID.TID 0000.0001) 
S/R EXTERNAL_FIELDS_LOAD: Reading new data:   12    1         0  0.000000000000E+00
(PID.TID 0000.0001)  MDS_READ_FIELD: opening global file: trenberth_taux.bin
(PID.TID 0000.0001)  MDS_READ_FIELD: opening global file: trenberth_taux.bin
(PID.TID 0000.0001)  MDS_READ_FIELD: opening global file: trenberth_tauy.bin
(PID.TID 0000.0001)  MDS_READ_FIELD: opening global file: trenberth_tauy.bin
(PID.TID 0000.0001)  MDS_READ_FIELD: opening global file: ncep_qnet.bin
(PID.TID 0000.0001)  MDS_READ_FIELD: opening global file: ncep_qnet.bin
(PID.TID 0000.0001)  MDS_READ_FIELD: opening global file: lev_sst.bin
(PID.TID 0000.0001)  MDS_READ_FIELD: opening global file: lev_sst.bin
(PID.TID 0000.0001)  MDS_READ_FIELD: opening global file: lev_sss.bin
(PID.TID 0000.0001)  MDS_READ_FIELD: opening global file: lev_sss.bin
time,SST,SSS,fu,fv,Q,E-P,i0,i1,a,b =   0.0000E+00  2.4878E+01  3.5166E+01 -1.0994E-02  2.9853E-02 -6.4581E+01  0.0000E+00    12     1  5.0000E-01  5.0000E-01
time,fu0,fu1,fu =   0.0000E+00 -1.3840E-02 -8.1474E-03 -1.0994E-02  5.000000000000000E-01  5.000000000000000E-01
(PID.TID 0000.0001)  MDS_READ_FIELD: opening file: xx_hfluxm.0000000000.001.001.data
(PID.TID 0000.0001)  MDS_READ_FIELD: opening file: xx_hfluxm.0000000000.002.001.data
(PID.TID 0000.0001)  MDS_READ_FIELD: opening file: xx_hfluxm.0000000000.001.002.data
(PID.TID 0000.0001)  MDS_READ_FIELD: opening file: xx_hfluxm.0000000000.002.002.data
 cg2d: Sum(rhs),rhsMax =   4.21884749357559E-15  2.54952604282385E+00
time,SST,SSS,fu,fv,Q,E-P,i0,i1,a,b =   8.6400E+04  2.4948E+01  3.5159E+01 -1.0804E-02  2.9462E-02 -6.4589E+01  0.0000E+00    12     1  5.3333E-01  4.6667E-01
time,fu0,fu1,fu =   8.6400E+04 -1.3840E-02 -8.1474E-03 -1.0804E-02  5.333333333333333E-01  4.666666666666667E-01
 cg2d: Sum(rhs),rhsMax =   3.33066907387547E-15  2.62443215722193E+00
time,SST,SSS,fu,fv,Q,E-P,i0,i1,a,b =   1.7280E+05  2.5017E+01  3.5152E+01 -1.0614E-02  2.9071E-02 -6.4598E+01  0.0000E+00    12     1  5.6667E-01  4.3333E-01
time,fu0,fu1,fu =   1.7280E+05 -1.3840E-02 -8.1474E-03 -1.0614E-02  5.666666666666667E-01  4.333333333333333E-01
 cg2d: Sum(rhs),rhsMax =   2.13162820728030E-14  2.39923446840280E+00
time,SST,SSS,fu,fv,Q,E-P,i0,i1,a,b =   2.5920E+05  2.5087E+01  3.5144E+01 -1.0425E-02  2.8680E-02 -6.4606E+01  0.0000E+00    12     1  6.0000E-01  4.0000E-01
time,fu0,fu1,fu =   2.5920E+05 -1.3840E-02 -8.1474E-03 -1.0425E-02  6.000000000000000E-01  4.000000000000000E-01
 cg2d: Sum(rhs),rhsMax =   1.28785870856518E-14  2.21574359151363E+00
time,SST,SSS,fu,fv,Q,E-P,i0,i1,a,b =   3.4560E+05  2.5157E+01  3.5137E+01 -1.0235E-02  2.8288E-02 -6.4615E+01  0.0000E+00    12     1  6.3333E-01  3.6667E-01
time,fu0,fu1,fu =   3.4560E+05 -1.3840E-02 -8.1474E-03 -1.0235E-02  6.333333333333333E-01  3.666666666666667E-01
 cg2d: Sum(rhs),rhsMax =   1.82076576038526E-14  2.00995911954349E+00
time,SST,SSS,fu,fv,Q,E-P,i0,i1,a,b =   4.3200E+05  2.5226E+01  3.5130E+01 -1.0045E-02  2.7897E-02 -6.4623E+01  0.0000E+00    12     1  6.6667E-01  3.3333E-01
time,fu0,fu1,fu =   4.3200E+05 -1.3840E-02 -8.1474E-03 -1.0045E-02  6.666666666666666E-01  3.333333333333334E-01
 cg2d: Sum(rhs),rhsMax =  -2.66453525910038E-15  1.78612610533141E+00
time,SST,SSS,fu,fv,Q,E-P,i0,i1,a,b =   5.1840E+05  2.5296E+01  3.5123E+01 -9.8553E-03  2.7506E-02 -6.4632E+01  0.0000E+00    12     1  7.0000E-01  3.0000E-01
time,fu0,fu1,fu =   5.1840E+05 -1.3840E-02 -8.1474E-03 -9.8553E-03  7.000000000000000E-01  3.000000000000000E-01
 cg2d: Sum(rhs),rhsMax =   6.66133814775094E-15  1.55419822260161E+00
time,SST,SSS,fu,fv,Q,E-P,i0,i1,a,b =   6.0480E+05  2.5366E+01  3.5115E+01 -9.6655E-03  2.7114E-02 -6.4640E+01  0.0000E+00    12     1  7.3333E-01  2.6667E-01
time,fu0,fu1,fu =   6.0480E+05 -1.3840E-02 -8.1474E-03 -9.6655E-03  7.333333333333333E-01  2.666666666666667E-01
 cg2d: Sum(rhs),rhsMax =  -4.44089209850063E-16  1.32823755952434E+00
time,SST,SSS,fu,fv,Q,E-P,i0,i1,a,b =   6.9120E+05  2.5435E+01  3.5108E+01 -9.4758E-03  2.6723E-02 -6.4649E+01  0.0000E+00    12     1  7.6667E-01  2.3333E-01
time,fu0,fu1,fu =   6.9120E+05 -1.3840E-02 -8.1474E-03 -9.4758E-03  7.666666666666667E-01  2.333333333333333E-01
 cg2d: Sum(rhs),rhsMax =  -2.93098878501041E-14  1.15613808765900E+00
time,SST,SSS,fu,fv,Q,E-P,i0,i1,a,b =   7.7760E+05  2.5505E+01  3.5101E+01 -9.2860E-03  2.6332E-02 -6.4657E+01  0.0000E+00    12     1  8.0000E-01  2.0000E-01
time,fu0,fu1,fu =   7.7760E+05 -1.3840E-02 -8.1474E-03 -9.2860E-03  8.000000000000000E-01  2.000000000000000E-01
 cg2d: Sum(rhs),rhsMax =  -1.50990331349021E-14  1.08384893708490E+00
(PID.TID 0000.0001) %CHECKPOINT        10 ckptA
(PID.TID 0000.0001)  MDS_READ_FIELD: opening global file: lev_t_an.bin
 --> objf_test(bi,bj)   =  0.000000000000000E+00
 --> objf_tracer(bi,bj) =  0.000000000000000E+00
 --> objf_atl(bi,bj)    =  0.000000000000000E+00
 --> objf_temp_tut(bi,bj)   =  0.141928141500781E+01
 --> objf_hflux_tut(bi,bj) =  0.365120182432684E-08
 --> objf_test(bi,bj)   =  0.000000000000000E+00
 --> objf_tracer(bi,bj) =  0.000000000000000E+00
 --> objf_atl(bi,bj)    =  0.000000000000000E+00
 --> objf_temp_tut(bi,bj)   =  0.185926149033763E+01
 --> objf_hflux_tut(bi,bj) =  0.000000000000000E+00
 --> objf_test(bi,bj)   =  0.000000000000000E+00
 --> objf_tracer(bi,bj) =  0.000000000000000E+00
 --> objf_atl(bi,bj)    =  0.000000000000000E+00
 --> objf_temp_tut(bi,bj)   =  0.140639570537809E+01
 --> objf_hflux_tut(bi,bj) =  0.000000000000000E+00
 --> objf_test(bi,bj)   =  0.000000000000000E+00
 --> objf_tracer(bi,bj) =  0.000000000000000E+00
 --> objf_atl(bi,bj)    =  0.000000000000000E+00
 --> objf_temp_tut(bi,bj)   =  0.151993756255467E+01
 --> objf_hflux_tut(bi,bj) =  0.000000000000000E+00
  local fc =  0.620487618058060E+01
 global fc =  0.620487618058060E+01
 ph-check fcpertplus =   6.20487618
(PID.TID 0000.0001)  MDS_READ_FIELD: opening file: xx_hfluxm.0000000000.001.001.data
(PID.TID 0000.0001)  MDS_READ_FIELD: opening file: xx_hfluxm.0000000000.002.001.data
(PID.TID 0000.0001)  MDS_READ_FIELD: opening file: xx_hfluxm.0000000000.001.002.data
(PID.TID 0000.0001)  MDS_READ_FIELD: opening file: xx_hfluxm.0000000000.002.002.data
 ph-check fcpertminus =   6.20487645
(PID.TID 0000.0001)  MDS_READ_FIELD: opening file: xx_hfluxm.0000000000.001.001.data
(PID.TID 0000.0001)  MDS_READ_FIELD: opening file: xx_hfluxm.0000000000.002.001.data
(PID.TID 0000.0001)  MDS_READ_FIELD: opening file: xx_hfluxm.0000000000.001.002.data
(PID.TID 0000.0001)  MDS_READ_FIELD: opening file: xx_hfluxm.0000000000.002.002.data
(PID.TID 0000.0001)  MDS_READ_FIELD: opening global file: bathymetry.bin
(PID.TID 0000.0001) // =======================================================
(PID.TID 0000.0001) // Field Model R_low (ini_masks_etc) at iteration          1
(PID.TID 0000.0001) // CMIN =         -5.200000000000000E+03
(PID.TID 0000.0001) // CMAX =         -1.200000000000000E+02
(PID.TID 0000.0001) // CINT =          1.881481481481482E+02
(PID.TID 0000.0001) // SYMBOLS (CMIN->CMAX): -abcdefghijklmnopqrstuvwxyz+
(PID.TID 0000.0001) //                  0.0: .
(PID.TID 0000.0001) // RANGE I (Lo:Hi:Step):(  -1:  92:   1)
(PID.TID 0000.0001) // RANGE J (Lo:Hi:Step):(  42:  -1:  -1)
(PID.TID 0000.0001) // RANGE K (Lo:Hi:Step):(   1:   1:   1)
(PID.TID 0000.0001) // =======================================================
(PID.TID 0000.0001) K =   1
(PID.TID 0000.0001) //                I=8       I=18      I=28      I=38      I=44      I=54      I=64      I=74      I=84
(PID.TID 0000.0001) // |--J--|101234567|901234567|901234567|901234567|901234567|567890123|567890123|567890123|567890123|56789012
(PID.TID 0000.0001) //     42 ............................................zyxxmyxxmgfeeefefgimnpwwwy..+zyy.....yyyyoiiihhz+.....
(PID.TID 0000.0001) //     41 ..................................................................................................
(PID.TID 0000.0001) //     40 qlloqz+.++++zzz++++++......................................................................+++qllo
(PID.TID 0000.0001) //     39 slloorzzzzzzzzz+...++.........................................................yxxz........+zvusllo
(PID.TID 0000.0001) //     38 mqpporzzzzzz+++...............................................................zxxy+......zyyvsmqpp
(PID.TID 0000.0001) //     37 mmmuz......................................................................++...zy+...yttyy.+smmmu
(PID.TID 0000.0001) //     36 utt+.........................................mm++mm++....................+++++++znmm.yoowssvuyutt+
(PID.TID 0000.0001) //     35 ++++.................................+zzz..rrmmkkmmkk+...+gghn...........+++....+nmiijlsoopuww++++
(PID.TID 0000.0001) //     34 .....................................+vvy.ggqyxv+yxv+y.ccdffhim..................+nihhikkihhm+....
(PID.TID 0000.0001) //     33 +.....................................uuz---h----------aaabdefin+.................zqvddflifffw+...
(PID.TID 0000.0001) //     32 +.....................................+t----h-------------acdfgnn................+++gdffkofffm+...
(PID.TID 0000.0001) //     31 ......................................-----ad------------abddegil..............qbaafccdhqqgddm....
(PID.TID 0000.0001) //     30 .....................................f----b--b---b------------abd............zfbb--fbcdosjfddi....
(PID.TID 0000.0001) //     29 ...................................tu----e---fjg-fjg----------abdf...........eaac--abfmijaadgi....
(PID.TID 0000.0001) //     28 .................................+xfl-----------------------bdedefi.........qbaa---aemfbbaaejz....
(PID.TID 0000.0001) //     27 ................xx..............+wfgfpf--------ea--eallc---bbbccefgi...+++x.qb-----akfa---ah......
(PID.TID 0000.0001) //     26 ................xnn...........+vd---dna------a--aa--aicfna---aabdfghku.++xssuy-----bgca---ci......
(PID.TID 0000.0001) //     25 ................iiik...oo+...+ivd---doaa-bc--ilglilglf--aa---aabcghhkll...ssum+xaaacjbaabdjk......
(PID.TID 0000.0001) //     24 ..............xnheeft.kkk+...uii.aagdm----aa---------a-------bbbcdefjljjju.zummwwbbchba--abi......
(PID.TID 0000.0001) //     23 ..............xgheefp.iikw...uuw..fihi----fed---------eaaa--bbbbcdfflkjiiiq....zykccefa--abd......
(PID.TID 0000.0001) //     22 uss...........bbelffslffkk...zz.wqkeeqoheccdfa---a-----egabaabcdddegghliiiqq......xeeehheehccquss.
(PID.TID 0000.0001) //     21 bbeir........nbbcdjhqdddiiz.....wqfeelgghmedea---a-----bibbcddddddefghklnqoo........ieeflhgcccbbei
(PID.TID 0000.0001) //     20 bbder.......ldcccdgkccccidd......z.vkkktqqhegg---g----aaacddddddddefghkiiijl.........nhfa--gfcbbde
(PID.TID 0000.0001) //     19 cdaaf.......kddosggpaaaibbccx...+z+.....r+nlec---c---agaaabcddccddefikfgffff...........d---cjhcdaa
(PID.TID 0000.0001) //     22 uss...........bbelffslffkk...zz.wqkeeqoheccdfa---a-----egabaabcdddegghliiiqq......xeeehheehccquss.
(PID.TID 0000.0001) //     21 bbeir........nbbcdjhqdddiiz.....wqfeelgghmedea---a-----bibbcddddddefghklnqoo........ieeflhgcccbbei
(PID.TID 0000.0001) //     20 bbder.......ldcccdgkccccidd......z.vkkktqqhegg---g----aaacddddddddefghkiiijl.........nhfa--gfcbbde
(PID.TID 0000.0001) //     19 cdaaf.......kddosggpaaaibbccx...+z+.....r+nlec---c---agaaabcddccddefikfgffff...........d---cjhcdaa
(PID.TID 0000.0001) //     18 d---d.......kglggvliaaaibbcaaeaiv++...qqzolhecccfcccfdgkaabcdfccdeeikgfgffdd+..........d---djhd---
(PID.TID 0000.0001) //     17 c---c.......l.feewlfaaaoaa----aiv.....qqnllslmlofmlofcdbaacceffffhhligfigeddj.........hd---ckhc---
(PID.TID 0000.0001) //     16 ba--c......tn.ddgnlfdaaqa-----lv.......vnllvllnwvlnwv--accivomfffhilhgfffeddjf........re--aeigba--
(PID.TID 0000.0001) //     15 b--dpz....+ll.ccdfhmdddlc----av.........otsxoomv-omv---abccddfihgijkhgfffeejfff......+fd---ckfb--d
(PID.TID 0000.0001) //     14 c--mcl....weeqbaafilkfend--eagy.........hhstofft-fft----aacdheefijkmjhhjijiffff.....zlfdaaadlfc--m
(PID.TID 0000.0001) //     13 cclbbg....nccobaaiddgkffqrqeaal.........eeutqfft-fft------aaceeffhijlkjhhigfffq....+jgfodccflhcclb
(PID.TID 0000.0001) //     12 hgaaacw+iiicclemhdddfliigfdcaabfaaaz....ccsurqpc-qpc--------abcifffikiiihhggff.....kbbbdfffglhhgaa
(PID.TID 0000.0001) //     11 gcaaacbbifccennhbbdefnihgfdccaaaa----..dcccnt.nca.ncab-------aabcdfilhggjiggff....l---abcefjlkgcaa
(PID.TID 0000.0001) //     10 fcaaccbdaacfrllfbbdegkmmljhfdddba----d.dcccfx.nyr.nyrebaba----abcdgilhfeegijgi..+w--aa-abcfilkfcaa
(PID.TID 0000.0001) //      9 ffcdcccaaaoqsolfdeehikihhlllgfedcccccdmdcccf.vyfavyfaaaaaaaa--abdehmjhfeeefglv.++w-----abcdfklffcd
(PID.TID 0000.0001) //      8 iffjklcaafddffeeccvznkfffhhhlkjifgjkkfeeddfsyvcaavcaaaaaaccdcccdfgjligedbbceg+.++xffn--cfddefliffj
(PID.TID 0000.0001) //      7 mqnnbbkkf--bmbaabbgtykfddeffeeddccdfhlffeelfbaaaaaaaaaacddeghgjgjlligeddaaabedfiiiiiisvkfkecchmqnn
(PID.TID 0000.0001) //      6 ca-------------aabcelttdddedddddccccdfkkiiffbaaaaaaaabcdgimmkmefecaaabbbaaabbdfiiiiispmmregifcca--
(PID.TID 0000.0001) //      5 -------a-------aaccehhhiddeddddddcccdfiikomodddefddefffmlmigedccaaaaaaaababbbdfiijsqgeccccbaa-----
(PID.TID 0000.0001) //      4 -ahebaabbbbbeihffgijiiiijpywnnpokkomkiiijmmmolkomlkommmgffeeedccaaaaaabbcccefhmz..yjgeccccbaa--ahe
(PID.TID 0000.0001) //      3 ffhhrpjiiwyy............................yxotmjjjjjjjjgfeeeeeeddeffffheddeghjkyy..yqjgeddccdbbgffhh
(PID.TID 0000.0001) //      2 ............................................zyxxmyxxmgfeeefefgimnpwwwy..+zyy.....yyyyoiiihhz+.....
(PID.TID 0000.0001) //      1 ..................................................................................................
(PID.TID 0000.0001) //      0 qlloqz+.++++zzz++++++......................................................................+++qllo
(PID.TID 0000.0001) //     -1 slloorzzzzzzzzz+...++.........................................................yxxz........+zvusllo
(PID.TID 0000.0001) // =======================================================
(PID.TID 0000.0001) // END OF FIELD                                          =
(PID.TID 0000.0001) // =======================================================
(PID.TID 0000.0001) 
(PID.TID 0000.0001) // =======================================================
(PID.TID 0000.0001) // Field Model Ro_surf (ini_masks_etc) at iteration          1
(PID.TID 0000.0001) // CMIN =          1.000000000000000E+32
(PID.TID 0000.0001) // CMAX =         -1.000000000000000E+32
(PID.TID 0000.0001) // CINT =          0.000000000000000E+00
(PID.TID 0000.0001) // SYMBOLS (CMIN->CMAX): -abcdefghijklmnopqrstuvwxyz+
(PID.TID 0000.0001) //                  0.0: .
(PID.TID 0000.0001) // RANGE I (Lo:Hi:Step):(  -1:  92:   1)
(PID.TID 0000.0001) // RANGE J (Lo:Hi:Step):(  42:  -1:  -1)
(PID.TID 0000.0001) // RANGE K (Lo:Hi:Step):(   1:   1:   1)
(PID.TID 0000.0001) // =======================================================
(PID.TID 0000.0001) // =======================================================
(PID.TID 0000.0001) // END OF FIELD                                          =
(PID.TID 0000.0001) // =======================================================
(PID.TID 0000.0001) 
(PID.TID 0000.0001) // =======================================================
(PID.TID 0000.0001) // Field hFacC at iteration          1
(PID.TID 0000.0001) // CMIN =          1.000000000000000E+00
(PID.TID 0000.0001) // CMAX =          1.000000000000000E+00
(PID.TID 0000.0001) // CINT =          0.000000000000000E+00
(PID.TID 0000.0001) // SYMBOLS (CMIN->CMAX): -abcdefghijklmnopqrstuvwxyz+
(PID.TID 0000.0001) //                  0.0: .
(PID.TID 0000.0001) // RANGE I (Lo:Hi:Step):(  -1:  92:   1)
(PID.TID 0000.0001) // RANGE J (Lo:Hi:Step):(  42:  -1:  -1)
(PID.TID 0000.0001) // RANGE K (Lo:Hi:Step):(   1:   1:   1)
(PID.TID 0000.0001) // =======================================================
(PID.TID 0000.0001) // =======================================================
(PID.TID 0000.0001) // END OF FIELD                                          =
(PID.TID 0000.0001) // =======================================================
(PID.TID 0000.0001) 
(PID.TID 0000.0001) // =======================================================
(PID.TID 0000.0001) // Field hFacW at iteration          1
(PID.TID 0000.0001) // CMIN =          1.000000000000000E+00
(PID.TID 0000.0001) // CMAX =          1.000000000000000E+00
(PID.TID 0000.0001) // CINT =          0.000000000000000E+00
(PID.TID 0000.0001) // SYMBOLS (CMIN->CMAX): -abcdefghijklmnopqrstuvwxyz+
(PID.TID 0000.0001) //                  0.0: .
(PID.TID 0000.0001) // RANGE I (Lo:Hi:Step):(  -1:  92:   1)
(PID.TID 0000.0001) // RANGE J (Lo:Hi:Step):(  42:  -1:  -1)
(PID.TID 0000.0001) // RANGE K (Lo:Hi:Step):(   1:   1:   1)
(PID.TID 0000.0001) // =======================================================
(PID.TID 0000.0001) // =======================================================
(PID.TID 0000.0001) // END OF FIELD                                          =
(PID.TID 0000.0001) // =======================================================
(PID.TID 0000.0001) 
(PID.TID 0000.0001) // =======================================================
(PID.TID 0000.0001) // Field hFacS at iteration          1
(PID.TID 0000.0001) // CMIN =          1.000000000000000E+00
(PID.TID 0000.0001) // CMAX =          1.000000000000000E+00
(PID.TID 0000.0001) // CINT =          0.000000000000000E+00
(PID.TID 0000.0001) // SYMBOLS (CMIN->CMAX): -abcdefghijklmnopqrstuvwxyz+
(PID.TID 0000.0001) //                  0.0: .
(PID.TID 0000.0001) // RANGE I (Lo:Hi:Step):(  -1:  92:   1)
(PID.TID 0000.0001) // RANGE J (Lo:Hi:Step):(  42:  -1:  -1)
(PID.TID 0000.0001) // RANGE K (Lo:Hi:Step):(   1:   1:   1)
(PID.TID 0000.0001) // =======================================================
(PID.TID 0000.0001) // =======================================================
(PID.TID 0000.0001) // END OF FIELD                                          =
(PID.TID 0000.0001) // =======================================================
(PID.TID 0000.0001) 
(PID.TID 0000.0001) %MON surfExpanfCori_max           =   1.4265546244797E-04
(PID.TID 0000.0001) %MON surfExpanfCori_min           =  -1.4265546244797E-04
(PID.TID 0000.0001) %MON surfExpanfCori_mean          =   4.7801269115805E-19
(PID.TID 0000.0001) %MON surfExpanfCori_sd            =   9.6599226301546E-05
(PID.TID 0000.0001) %MON surfExpanfCoriG_max          =   1.4151032568025E-04
(PID.TID 0000.0001) %MON surfExpanfCoriG_min          =  -1.4362679550910E-04
(PID.TID 0000.0001) %MON surfExpanfCoriG_mean         =  -3.5906698877273E-06
(PID.TID 0000.0001) %MON surfExpanfCoriG_sd           =   9.6548915696246E-05
(PID.TID 0000.0001) %MON surfExpanfCoriCos_max        =   1.4575362704741E-04
(PID.TID 0000.0001) %MON surfExpanfCoriCos_min        =   3.0322354601388E-05
(PID.TID 0000.0001) %MON surfExpanfCoriCos_mean       =   1.0288600773633E-04
(PID.TID 0000.0001) %MON surfExpanfCoriCos_sd         =   3.6784304327266E-05
(PID.TID 0000.0001) INI_CG2D: CG2D normalisation factor =  6.5682677425711703E-05
(PID.TID 0000.0001) 
(PID.TID 0000.0001)  MDS_READ_FIELD: opening global file: lev_t.bin
(PID.TID 0000.0001)  MDS_READ_FIELD: opening global file: lev_s.bin
(PID.TID 0000.0001) Start initial hydrostatic pressure computation
(PID.TID 0000.0001) Pressure is predetermined for buoyancyRelation OCEANIC
(PID.TID 0000.0001) 
(PID.TID 0000.0001)  MDS_READ_FIELD: opening global file: trenberth_taux.bin
(PID.TID 0000.0001)  MDS_READ_FIELD: opening global file: trenberth_tauy.bin
(PID.TID 0000.0001)  MDS_READ_FIELD: opening global file: ncep_qnet.bin
(PID.TID 0000.0001)  MDS_READ_FIELD: opening global file: lev_sst.bin
(PID.TID 0000.0001)  MDS_READ_FIELD: opening global file: lev_sss.bin
(PID.TID 0000.0001) // =======================================================
(PID.TID 0000.0001) // Model current state
(PID.TID 0000.0001) // =======================================================
(PID.TID 0000.0001) 
S/R EXTERNAL_FIELDS_LOAD: Reading new data:   12    1         0  0.000000000000E+00
(PID.TID 0000.0001)  MDS_READ_FIELD: opening global file: trenberth_taux.bin
(PID.TID 0000.0001)  MDS_READ_FIELD: opening global file: trenberth_taux.bin
(PID.TID 0000.0001)  MDS_READ_FIELD: opening global file: trenberth_tauy.bin
(PID.TID 0000.0001)  MDS_READ_FIELD: opening global file: trenberth_tauy.bin
(PID.TID 0000.0001)  MDS_READ_FIELD: opening global file: ncep_qnet.bin
(PID.TID 0000.0001)  MDS_READ_FIELD: opening global file: ncep_qnet.bin
(PID.TID 0000.0001)  MDS_READ_FIELD: opening global file: lev_sst.bin
(PID.TID 0000.0001)  MDS_READ_FIELD: opening global file: lev_sst.bin
(PID.TID 0000.0001)  MDS_READ_FIELD: opening global file: lev_sss.bin
(PID.TID 0000.0001)  MDS_READ_FIELD: opening global file: lev_sss.bin
time,SST,SSS,fu,fv,Q,E-P,i0,i1,a,b =   0.0000E+00  2.4878E+01  3.5166E+01 -1.0994E-02  2.9853E-02 -6.4581E+01  0.0000E+00    12     1  5.0000E-01  5.0000E-01
time,fu0,fu1,fu =   0.0000E+00 -1.3840E-02 -8.1474E-03 -1.0994E-02  5.000000000000000E-01  5.000000000000000E-01
(PID.TID 0000.0001)  MDS_READ_FIELD: opening file: xx_hfluxm.0000000000.001.001.data
(PID.TID 0000.0001)  MDS_READ_FIELD: opening file: xx_hfluxm.0000000000.002.001.data
(PID.TID 0000.0001)  MDS_READ_FIELD: opening file: xx_hfluxm.0000000000.001.002.data
(PID.TID 0000.0001)  MDS_READ_FIELD: opening file: xx_hfluxm.0000000000.002.002.data
 cg2d: Sum(rhs),rhsMax =   4.21884749357559E-15  2.54952604282385E+00
time,SST,SSS,fu,fv,Q,E-P,i0,i1,a,b =   8.6400E+04  2.4948E+01  3.5159E+01 -1.0804E-02  2.9462E-02 -6.4589E+01  0.0000E+00    12     1  5.3333E-01  4.6667E-01
time,fu0,fu1,fu =   8.6400E+04 -1.3840E-02 -8.1474E-03 -1.0804E-02  5.333333333333333E-01  4.666666666666667E-01
 cg2d: Sum(rhs),rhsMax =   3.33066907387547E-15  2.62443215722193E+00
time,SST,SSS,fu,fv,Q,E-P,i0,i1,a,b =   1.7280E+05  2.5017E+01  3.5152E+01 -1.0614E-02  2.9071E-02 -6.4598E+01  0.0000E+00    12     1  5.6667E-01  4.3333E-01
time,fu0,fu1,fu =   1.7280E+05 -1.3840E-02 -8.1474E-03 -1.0614E-02  5.666666666666667E-01  4.333333333333333E-01
 cg2d: Sum(rhs),rhsMax =  -2.44249065417534E-15  2.39923446840244E+00
time,SST,SSS,fu,fv,Q,E-P,i0,i1,a,b =   2.5920E+05  2.5087E+01  3.5144E+01 -1.0425E-02  2.8680E-02 -6.4606E+01  0.0000E+00    12     1  6.0000E-01  4.0000E-01
time,fu0,fu1,fu =   2.5920E+05 -1.3840E-02 -8.1474E-03 -1.0425E-02  6.000000000000000E-01  4.000000000000000E-01
 cg2d: Sum(rhs),rhsMax =  -4.04121180963557E-14  2.21574359151247E+00
time,SST,SSS,fu,fv,Q,E-P,i0,i1,a,b =   3.4560E+05  2.5157E+01  3.5137E+01 -1.0235E-02  2.8288E-02 -6.4615E+01  0.0000E+00    12     1  6.3333E-01  3.6667E-01
time,fu0,fu1,fu =   3.4560E+05 -1.3840E-02 -8.1474E-03 -1.0235E-02  6.333333333333333E-01  3.666666666666667E-01
 cg2d: Sum(rhs),rhsMax =  -1.59872115546023E-14  2.00995911954166E+00
time,SST,SSS,fu,fv,Q,E-P,i0,i1,a,b =   4.3200E+05  2.5226E+01  3.5130E+01 -1.0045E-02  2.7897E-02 -6.4623E+01  0.0000E+00    12     1  6.6667E-01  3.3333E-01
time,fu0,fu1,fu =   4.3200E+05 -1.3840E-02 -8.1474E-03 -1.0045E-02  6.666666666666666E-01  3.333333333333334E-01
 cg2d: Sum(rhs),rhsMax =  -7.54951656745106E-15  1.78612610532952E+00
time,SST,SSS,fu,fv,Q,E-P,i0,i1,a,b =   5.1840E+05  2.5296E+01  3.5123E+01 -9.8553E-03  2.7506E-02 -6.4632E+01  0.0000E+00    12     1  7.0000E-01  3.0000E-01
time,fu0,fu1,fu =   5.1840E+05 -1.3840E-02 -8.1474E-03 -9.8553E-03  7.000000000000000E-01  3.000000000000000E-01
 cg2d: Sum(rhs),rhsMax =  -1.33226762955019E-15  1.55419822260106E+00
time,SST,SSS,fu,fv,Q,E-P,i0,i1,a,b =   6.0480E+05  2.5366E+01  3.5115E+01 -9.6655E-03  2.7114E-02 -6.4640E+01  0.0000E+00    12     1  7.3333E-01  2.6667E-01
time,fu0,fu1,fu =   6.0480E+05 -1.3840E-02 -8.1474E-03 -9.6655E-03  7.333333333333333E-01  2.666666666666667E-01
 cg2d: Sum(rhs),rhsMax =  -7.54951656745106E-15  1.32823755952921E+00
time,SST,SSS,fu,fv,Q,E-P,i0,i1,a,b =   6.9120E+05  2.5435E+01  3.5108E+01 -9.4758E-03  2.6723E-02 -6.4649E+01  0.0000E+00    12     1  7.6667E-01  2.3333E-01
time,fu0,fu1,fu =   6.9120E+05 -1.3840E-02 -8.1474E-03 -9.4758E-03  7.666666666666667E-01  2.333333333333333E-01
 cg2d: Sum(rhs),rhsMax =   1.36557432028894E-14  1.15613808764807E+00
time,SST,SSS,fu,fv,Q,E-P,i0,i1,a,b =   7.7760E+05  2.5505E+01  3.5101E+01 -9.2860E-03  2.6332E-02 -6.4657E+01  0.0000E+00    12     1  8.0000E-01  2.0000E-01
time,fu0,fu1,fu =   7.7760E+05 -1.3840E-02 -8.1474E-03 -9.2860E-03  8.000000000000000E-01  2.000000000000000E-01
 cg2d: Sum(rhs),rhsMax =   2.05391259555654E-14  1.08384893707356E+00
(PID.TID 0000.0001) %CHECKPOINT        10 ckptB
(PID.TID 0000.0001)  MDS_READ_FIELD: opening global file: lev_t_an.bin
 --> objf_test(bi,bj)   =  0.000000000000000E+00
 --> objf_tracer(bi,bj) =  0.000000000000000E+00
 --> objf_atl(bi,bj)    =  0.000000000000000E+00
 --> objf_temp_tut(bi,bj)   =  0.141928196969740E+01
 --> objf_hflux_tut(bi,bj) =  0.365120182432684E-08
 --> objf_test(bi,bj)   =  0.000000000000000E+00
 --> objf_tracer(bi,bj) =  0.000000000000000E+00
 --> objf_atl(bi,bj)    =  0.000000000000000E+00
 --> objf_temp_tut(bi,bj)   =  0.185926149042592E+01
 --> objf_hflux_tut(bi,bj) =  0.000000000000000E+00
 --> objf_test(bi,bj)   =  0.000000000000000E+00
 --> objf_tracer(bi,bj) =  0.000000000000000E+00
 --> objf_atl(bi,bj)    =  0.000000000000000E+00
 --> objf_temp_tut(bi,bj)   =  0.140639570537630E+01
 --> objf_hflux_tut(bi,bj) =  0.000000000000000E+00
 --> objf_test(bi,bj)   =  0.000000000000000E+00
 --> objf_tracer(bi,bj) =  0.000000000000000E+00
 --> objf_atl(bi,bj)    =  0.000000000000000E+00
 --> objf_temp_tut(bi,bj)   =  0.151993756255279E+01
 --> objf_hflux_tut(bi,bj) =  0.000000000000000E+00
  local fc =  0.620487673535481E+01
 global fc =  0.620487673535481E+01
(PID.TID 0000.0001)  MDS_READ_FIELD: opening file: xx_hfluxm.0000000000.001.001.data
(PID.TID 0000.0001)  MDS_READ_FIELD: opening file: xx_hfluxm.0000000000.002.001.data
(PID.TID 0000.0001)  MDS_READ_FIELD: opening file: xx_hfluxm.0000000000.001.002.data
(PID.TID 0000.0001)  MDS_READ_FIELD: opening file: xx_hfluxm.0000000000.002.002.data
grad-res -------------------------------
 grad-res     0    2   44    2    1    1    1    1   0.620487645063E+01 0.620487618058E+01 0.620487673535E+01
 grad-res     0    2    2    2  669    1    1    1   -.277387097572E-05 -.277387107062E-05 -.342102504103E-07
(PID.TID 0000.0001)   ADM  precision_derivative_cost =    6.20487645062636E+00
(PID.TID 0000.0001)   ADM  precision_derivative_grad =   -2.77387097572118E-06
 ph-grd  ierr ---------------------------
 ph-grd  ierr =  0, icomp =  2, ichknum =  2
 ph-grd -->hit<--  45 2 1 1
(PID.TID 0000.0001)  MDS_READ_FIELD: opening file: adxx_hfluxm.0000000000.001.001.data
(PID.TID 0000.0001)  MDS_READ_FIELD: opening file: adxx_hfluxm.0000000000.002.001.data
(PID.TID 0000.0001)  MDS_READ_FIELD: opening file: adxx_hfluxm.0000000000.001.002.data
(PID.TID 0000.0001)  MDS_READ_FIELD: opening file: adxx_hfluxm.0000000000.002.002.data
(PID.TID 0000.0001)  MDS_READ_FIELD: opening file: xx_hfluxm.0000000000.001.001.data
(PID.TID 0000.0001)  MDS_READ_FIELD: opening file: xx_hfluxm.0000000000.002.001.data
(PID.TID 0000.0001)  MDS_READ_FIELD: opening file: xx_hfluxm.0000000000.001.002.data
(PID.TID 0000.0001)  MDS_READ_FIELD: opening file: xx_hfluxm.0000000000.002.002.data
(PID.TID 0000.0001)  MDS_READ_FIELD: opening global file: bathymetry.bin
(PID.TID 0000.0001) // =======================================================
(PID.TID 0000.0001) // Field Model R_low (ini_masks_etc) at iteration          1
(PID.TID 0000.0001) // CMIN =         -5.200000000000000E+03
(PID.TID 0000.0001) // CMAX =         -1.200000000000000E+02
(PID.TID 0000.0001) // CINT =          1.881481481481482E+02
(PID.TID 0000.0001) // SYMBOLS (CMIN->CMAX): -abcdefghijklmnopqrstuvwxyz+
(PID.TID 0000.0001) //                  0.0: .
(PID.TID 0000.0001) // RANGE I (Lo:Hi:Step):(  -1:  92:   1)
(PID.TID 0000.0001) // RANGE J (Lo:Hi:Step):(  42:  -1:  -1)
(PID.TID 0000.0001) // RANGE K (Lo:Hi:Step):(   1:   1:   1)
(PID.TID 0000.0001) // =======================================================
(PID.TID 0000.0001) K =   1
(PID.TID 0000.0001) //                I=8       I=18      I=28      I=38      I=44      I=54      I=64      I=74      I=84
(PID.TID 0000.0001) // |--J--|101234567|901234567|901234567|901234567|901234567|567890123|567890123|567890123|567890123|56789012
(PID.TID 0000.0001) //     42 ............................................zyxxmyxxmgfeeefefgimnpwwwy..+zyy.....yyyyoiiihhz+.....
(PID.TID 0000.0001) //     41 ..................................................................................................
(PID.TID 0000.0001) //     40 qlloqz+.++++zzz++++++......................................................................+++qllo
(PID.TID 0000.0001) //     39 slloorzzzzzzzzz+...++.........................................................yxxz........+zvusllo
(PID.TID 0000.0001) //     38 mqpporzzzzzz+++...............................................................zxxy+......zyyvsmqpp
(PID.TID 0000.0001) //     37 mmmuz......................................................................++...zy+...yttyy.+smmmu
(PID.TID 0000.0001) //     36 utt+.........................................mm++mm++....................+++++++znmm.yoowssvuyutt+
(PID.TID 0000.0001) //     35 ++++.................................+zzz..rrmmkkmmkk+...+gghn...........+++....+nmiijlsoopuww++++
(PID.TID 0000.0001) //     34 .....................................+vvy.ggqyxv+yxv+y.ccdffhim..................+nihhikkihhm+....
(PID.TID 0000.0001) //     33 +.....................................uuz---h----------aaabdefin+.................zqvddflifffw+...
(PID.TID 0000.0001) //     32 +.....................................+t----h-------------acdfgnn................+++gdffkofffm+...
(PID.TID 0000.0001) //     31 ......................................-----ad------------abddegil..............qbaafccdhqqgddm....
(PID.TID 0000.0001) //     30 .....................................f----b--b---b------------abd............zfbb--fbcdosjfddi....
(PID.TID 0000.0001) //     29 ...................................tu----e---fjg-fjg----------abdf...........eaac--abfmijaadgi....
(PID.TID 0000.0001) //     28 .................................+xfl-----------------------bdedefi.........qbaa---aemfbbaaejz....
(PID.TID 0000.0001) //     27 ................xx..............+wfgfpf--------ea--eallc---bbbccefgi...+++x.qb-----akfa---ah......
(PID.TID 0000.0001) //     26 ................xnn...........+vd---dna------a--aa--aicfna---aabdfghku.++xssuy-----bgca---ci......
(PID.TID 0000.0001) //     25 ................iiik...oo+...+ivd---doaa-bc--ilglilglf--aa---aabcghhkll...ssum+xaaacjbaabdjk......
(PID.TID 0000.0001) //     24 ..............xnheeft.kkk+...uii.aagdm----aa---------a-------bbbcdefjljjju.zummwwbbchba--abi......
(PID.TID 0000.0001) //     23 ..............xgheefp.iikw...uuw..fihi----fed---------eaaa--bbbbcdfflkjiiiq....zykccefa--abd......
(PID.TID 0000.0001) //     22 uss...........bbelffslffkk...zz.wqkeeqoheccdfa---a-----egabaabcdddegghliiiqq......xeeehheehccquss.
(PID.TID 0000.0001) //     21 bbeir........nbbcdjhqdddiiz.....wqfeelgghmedea---a-----bibbcddddddefghklnqoo........ieeflhgcccbbei
(PID.TID 0000.0001) //     20 bbder.......ldcccdgkccccidd......z.vkkktqqhegg---g----aaacddddddddefghkiiijl.........nhfa--gfcbbde
(PID.TID 0000.0001) //     19 cdaaf.......kddosggpaaaibbccx...+z+.....r+nlec---c---agaaabcddccddefikfgffff...........d---cjhcdaa
(PID.TID 0000.0001) //     22 uss...........bbelffslffkk...zz.wqkeeqoheccdfa---a-----egabaabcdddegghliiiqq......xeeehheehccquss.
(PID.TID 0000.0001) //     21 bbeir........nbbcdjhqdddiiz.....wqfeelgghmedea---a-----bibbcddddddefghklnqoo........ieeflhgcccbbei
(PID.TID 0000.0001) //     20 bbder.......ldcccdgkccccidd......z.vkkktqqhegg---g----aaacddddddddefghkiiijl.........nhfa--gfcbbde
(PID.TID 0000.0001) //     19 cdaaf.......kddosggpaaaibbccx...+z+.....r+nlec---c---agaaabcddccddefikfgffff...........d---cjhcdaa
(PID.TID 0000.0001) //     18 d---d.......kglggvliaaaibbcaaeaiv++...qqzolhecccfcccfdgkaabcdfccdeeikgfgffdd+..........d---djhd---
(PID.TID 0000.0001) //     17 c---c.......l.feewlfaaaoaa----aiv.....qqnllslmlofmlofcdbaacceffffhhligfigeddj.........hd---ckhc---
(PID.TID 0000.0001) //     16 ba--c......tn.ddgnlfdaaqa-----lv.......vnllvllnwvlnwv--accivomfffhilhgfffeddjf........re--aeigba--
(PID.TID 0000.0001) //     15 b--dpz....+ll.ccdfhmdddlc----av.........otsxoomv-omv---abccddfihgijkhgfffeejfff......+fd---ckfb--d
(PID.TID 0000.0001) //     14 c--mcl....weeqbaafilkfend--eagy.........hhstofft-fft----aacdheefijkmjhhjijiffff.....zlfdaaadlfc--m
(PID.TID 0000.0001) //     13 cclbbg....nccobaaiddgkffqrqeaal.........eeutqfft-fft------aaceeffhijlkjhhigfffq....+jgfodccflhcclb
(PID.TID 0000.0001) //     12 hgaaacw+iiicclemhdddfliigfdcaabfaaaz....ccsurqpc-qpc--------abcifffikiiihhggff.....kbbbdfffglhhgaa
(PID.TID 0000.0001) //     11 gcaaacbbifccennhbbdefnihgfdccaaaa----..dcccnt.nca.ncab-------aabcdfilhggjiggff....l---abcefjlkgcaa
(PID.TID 0000.0001) //     10 fcaaccbdaacfrllfbbdegkmmljhfdddba----d.dcccfx.nyr.nyrebaba----abcdgilhfeegijgi..+w--aa-abcfilkfcaa
(PID.TID 0000.0001) //      9 ffcdcccaaaoqsolfdeehikihhlllgfedcccccdmdcccf.vyfavyfaaaaaaaa--abdehmjhfeeefglv.++w-----abcdfklffcd
(PID.TID 0000.0001) //      8 iffjklcaafddffeeccvznkfffhhhlkjifgjkkfeeddfsyvcaavcaaaaaaccdcccdfgjligedbbceg+.++xffn--cfddefliffj
(PID.TID 0000.0001) //      7 mqnnbbkkf--bmbaabbgtykfddeffeeddccdfhlffeelfbaaaaaaaaaacddeghgjgjlligeddaaabedfiiiiiisvkfkecchmqnn
(PID.TID 0000.0001) //      6 ca-------------aabcelttdddedddddccccdfkkiiffbaaaaaaaabcdgimmkmefecaaabbbaaabbdfiiiiispmmregifcca--
(PID.TID 0000.0001) //      5 -------a-------aaccehhhiddeddddddcccdfiikomodddefddefffmlmigedccaaaaaaaababbbdfiijsqgeccccbaa-----
(PID.TID 0000.0001) //      4 -ahebaabbbbbeihffgijiiiijpywnnpokkomkiiijmmmolkomlkommmgffeeedccaaaaaabbcccefhmz..yjgeccccbaa--ahe
(PID.TID 0000.0001) //      3 ffhhrpjiiwyy............................yxotmjjjjjjjjgfeeeeeeddeffffheddeghjkyy..yqjgeddccdbbgffhh
(PID.TID 0000.0001) //      2 ............................................zyxxmyxxmgfeeefefgimnpwwwy..+zyy.....yyyyoiiihhz+.....
(PID.TID 0000.0001) //      1 ..................................................................................................
(PID.TID 0000.0001) //      0 qlloqz+.++++zzz++++++......................................................................+++qllo
(PID.TID 0000.0001) //     -1 slloorzzzzzzzzz+...++.........................................................yxxz........+zvusllo
(PID.TID 0000.0001) // =======================================================
(PID.TID 0000.0001) // END OF FIELD                                          =
(PID.TID 0000.0001) // =======================================================
(PID.TID 0000.0001) 
(PID.TID 0000.0001) // =======================================================
(PID.TID 0000.0001) // Field Model Ro_surf (ini_masks_etc) at iteration          1
(PID.TID 0000.0001) // CMIN =          1.000000000000000E+32
(PID.TID 0000.0001) // CMAX =         -1.000000000000000E+32
(PID.TID 0000.0001) // CINT =          0.000000000000000E+00
(PID.TID 0000.0001) // SYMBOLS (CMIN->CMAX): -abcdefghijklmnopqrstuvwxyz+
(PID.TID 0000.0001) //                  0.0: .
(PID.TID 0000.0001) // RANGE I (Lo:Hi:Step):(  -1:  92:   1)
(PID.TID 0000.0001) // RANGE J (Lo:Hi:Step):(  42:  -1:  -1)
(PID.TID 0000.0001) // RANGE K (Lo:Hi:Step):(   1:   1:   1)
(PID.TID 0000.0001) // =======================================================
(PID.TID 0000.0001) // =======================================================
(PID.TID 0000.0001) // END OF FIELD                                          =
(PID.TID 0000.0001) // =======================================================
(PID.TID 0000.0001) 
(PID.TID 0000.0001) // =======================================================
(PID.TID 0000.0001) // Field hFacC at iteration          1
(PID.TID 0000.0001) // CMIN =          1.000000000000000E+00
(PID.TID 0000.0001) // CMAX =          1.000000000000000E+00
(PID.TID 0000.0001) // CINT =          0.000000000000000E+00
(PID.TID 0000.0001) // SYMBOLS (CMIN->CMAX): -abcdefghijklmnopqrstuvwxyz+
(PID.TID 0000.0001) //                  0.0: .
(PID.TID 0000.0001) // RANGE I (Lo:Hi:Step):(  -1:  92:   1)
(PID.TID 0000.0001) // RANGE J (Lo:Hi:Step):(  42:  -1:  -1)
(PID.TID 0000.0001) // RANGE K (Lo:Hi:Step):(   1:   1:   1)
(PID.TID 0000.0001) // =======================================================
(PID.TID 0000.0001) // =======================================================
(PID.TID 0000.0001) // END OF FIELD                                          =
(PID.TID 0000.0001) // =======================================================
(PID.TID 0000.0001) 
(PID.TID 0000.0001) // =======================================================
(PID.TID 0000.0001) // Field hFacW at iteration          1
(PID.TID 0000.0001) // CMIN =          1.000000000000000E+00
(PID.TID 0000.0001) // CMAX =          1.000000000000000E+00
(PID.TID 0000.0001) // CINT =          0.000000000000000E+00
(PID.TID 0000.0001) // SYMBOLS (CMIN->CMAX): -abcdefghijklmnopqrstuvwxyz+
(PID.TID 0000.0001) //                  0.0: .
(PID.TID 0000.0001) // RANGE I (Lo:Hi:Step):(  -1:  92:   1)
(PID.TID 0000.0001) // RANGE J (Lo:Hi:Step):(  42:  -1:  -1)
(PID.TID 0000.0001) // RANGE K (Lo:Hi:Step):(   1:   1:   1)
(PID.TID 0000.0001) // =======================================================
(PID.TID 0000.0001) // =======================================================
(PID.TID 0000.0001) // END OF FIELD                                          =
(PID.TID 0000.0001) // =======================================================
(PID.TID 0000.0001) 
(PID.TID 0000.0001) // =======================================================
(PID.TID 0000.0001) // Field hFacS at iteration          1
(PID.TID 0000.0001) // CMIN =          1.000000000000000E+00
(PID.TID 0000.0001) // CMAX =          1.000000000000000E+00
(PID.TID 0000.0001) // CINT =          0.000000000000000E+00
(PID.TID 0000.0001) // SYMBOLS (CMIN->CMAX): -abcdefghijklmnopqrstuvwxyz+
(PID.TID 0000.0001) //                  0.0: .
(PID.TID 0000.0001) // RANGE I (Lo:Hi:Step):(  -1:  92:   1)
(PID.TID 0000.0001) // RANGE J (Lo:Hi:Step):(  42:  -1:  -1)
(PID.TID 0000.0001) // RANGE K (Lo:Hi:Step):(   1:   1:   1)
(PID.TID 0000.0001) // =======================================================
(PID.TID 0000.0001) // =======================================================
(PID.TID 0000.0001) // END OF FIELD                                          =
(PID.TID 0000.0001) // =======================================================
(PID.TID 0000.0001) 
(PID.TID 0000.0001) %MON surfExpanfCori_max           =   1.4265546244797E-04
(PID.TID 0000.0001) %MON surfExpanfCori_min           =  -1.4265546244797E-04
(PID.TID 0000.0001) %MON surfExpanfCori_mean          =   4.7801269115805E-19
(PID.TID 0000.0001) %MON surfExpanfCori_sd            =   9.6599226301546E-05
(PID.TID 0000.0001) %MON surfExpanfCoriG_max          =   1.4151032568025E-04
(PID.TID 0000.0001) %MON surfExpanfCoriG_min          =  -1.4362679550910E-04
(PID.TID 0000.0001) %MON surfExpanfCoriG_mean         =  -3.5906698877273E-06
(PID.TID 0000.0001) %MON surfExpanfCoriG_sd           =   9.6548915696246E-05
(PID.TID 0000.0001) %MON surfExpanfCoriCos_max        =   1.4575362704741E-04
(PID.TID 0000.0001) %MON surfExpanfCoriCos_min        =   3.0322354601388E-05
(PID.TID 0000.0001) %MON surfExpanfCoriCos_mean       =   1.0288600773633E-04
(PID.TID 0000.0001) %MON surfExpanfCoriCos_sd         =   3.6784304327266E-05
(PID.TID 0000.0001) INI_CG2D: CG2D normalisation factor =  6.5682677425711703E-05
(PID.TID 0000.0001) 
(PID.TID 0000.0001)  MDS_READ_FIELD: opening global file: lev_t.bin
(PID.TID 0000.0001)  MDS_READ_FIELD: opening global file: lev_s.bin
(PID.TID 0000.0001) Start initial hydrostatic pressure computation
(PID.TID 0000.0001) Pressure is predetermined for buoyancyRelation OCEANIC
(PID.TID 0000.0001) 
(PID.TID 0000.0001)  MDS_READ_FIELD: opening global file: trenberth_taux.bin
(PID.TID 0000.0001)  MDS_READ_FIELD: opening global file: trenberth_tauy.bin
(PID.TID 0000.0001)  MDS_READ_FIELD: opening global file: ncep_qnet.bin
(PID.TID 0000.0001)  MDS_READ_FIELD: opening global file: lev_sst.bin
(PID.TID 0000.0001)  MDS_READ_FIELD: opening global file: lev_sss.bin
(PID.TID 0000.0001) // =======================================================
(PID.TID 0000.0001) // Model current state
(PID.TID 0000.0001) // =======================================================
(PID.TID 0000.0001) 
S/R EXTERNAL_FIELDS_LOAD: Reading new data:   12    1         0  0.000000000000E+00
(PID.TID 0000.0001)  MDS_READ_FIELD: opening global file: trenberth_taux.bin
(PID.TID 0000.0001)  MDS_READ_FIELD: opening global file: trenberth_taux.bin
(PID.TID 0000.0001)  MDS_READ_FIELD: opening global file: trenberth_tauy.bin
(PID.TID 0000.0001)  MDS_READ_FIELD: opening global file: trenberth_tauy.bin
(PID.TID 0000.0001)  MDS_READ_FIELD: opening global file: ncep_qnet.bin
(PID.TID 0000.0001)  MDS_READ_FIELD: opening global file: ncep_qnet.bin
(PID.TID 0000.0001)  MDS_READ_FIELD: opening global file: lev_sst.bin
(PID.TID 0000.0001)  MDS_READ_FIELD: opening global file: lev_sst.bin
(PID.TID 0000.0001)  MDS_READ_FIELD: opening global file: lev_sss.bin
(PID.TID 0000.0001)  MDS_READ_FIELD: opening global file: lev_sss.bin
time,SST,SSS,fu,fv,Q,E-P,i0,i1,a,b =   0.0000E+00  2.4878E+01  3.5166E+01 -1.0994E-02  2.9853E-02 -6.4581E+01  0.0000E+00    12     1  5.0000E-01  5.0000E-01
time,fu0,fu1,fu =   0.0000E+00 -1.3840E-02 -8.1474E-03 -1.0994E-02  5.000000000000000E-01  5.000000000000000E-01
(PID.TID 0000.0001)  MDS_READ_FIELD: opening file: xx_hfluxm.0000000000.001.001.data
(PID.TID 0000.0001)  MDS_READ_FIELD: opening file: xx_hfluxm.0000000000.002.001.data
(PID.TID 0000.0001)  MDS_READ_FIELD: opening file: xx_hfluxm.0000000000.001.002.data
(PID.TID 0000.0001)  MDS_READ_FIELD: opening file: xx_hfluxm.0000000000.002.002.data
 cg2d: Sum(rhs),rhsMax =   4.21884749357559E-15  2.54952604282385E+00
time,SST,SSS,fu,fv,Q,E-P,i0,i1,a,b =   8.6400E+04  2.4948E+01  3.5159E+01 -1.0804E-02  2.9462E-02 -6.4589E+01  0.0000E+00    12     1  5.3333E-01  4.6667E-01
time,fu0,fu1,fu =   8.6400E+04 -1.3840E-02 -8.1474E-03 -1.0804E-02  5.333333333333333E-01  4.666666666666667E-01
 cg2d: Sum(rhs),rhsMax =   3.33066907387547E-15  2.62443215722193E+00
time,SST,SSS,fu,fv,Q,E-P,i0,i1,a,b =   1.7280E+05  2.5017E+01  3.5152E+01 -1.0614E-02  2.9071E-02 -6.4598E+01  0.0000E+00    12     1  5.6667E-01  4.3333E-01
time,fu0,fu1,fu =   1.7280E+05 -1.3840E-02 -8.1474E-03 -1.0614E-02  5.666666666666667E-01  4.333333333333333E-01
 cg2d: Sum(rhs),rhsMax =  -2.26485497023532E-14  2.39923446840282E+00
time,SST,SSS,fu,fv,Q,E-P,i0,i1,a,b =   2.5920E+05  2.5087E+01  3.5144E+01 -1.0425E-02  2.8680E-02 -6.4606E+01  0.0000E+00    12     1  6.0000E-01  4.0000E-01
time,fu0,fu1,fu =   2.5920E+05 -1.3840E-02 -8.1474E-03 -1.0425E-02  6.000000000000000E-01  4.000000000000000E-01
 cg2d: Sum(rhs),rhsMax =  -7.10542735760100E-15  2.21574359151365E+00
time,SST,SSS,fu,fv,Q,E-P,i0,i1,a,b =   3.4560E+05  2.5157E+01  3.5137E+01 -1.0235E-02  2.8288E-02 -6.4615E+01  0.0000E+00    12     1  6.3333E-01  3.6667E-01
time,fu0,fu1,fu =   3.4560E+05 -1.3840E-02 -8.1474E-03 -1.0235E-02  6.333333333333333E-01  3.666666666666667E-01
 cg2d: Sum(rhs),rhsMax =   7.99360577730113E-15  2.00995911954353E+00
time,SST,SSS,fu,fv,Q,E-P,i0,i1,a,b =   4.3200E+05  2.5226E+01  3.5130E+01 -1.0045E-02  2.7897E-02 -6.4623E+01  0.0000E+00    12     1  6.6667E-01  3.3333E-01
time,fu0,fu1,fu =   4.3200E+05 -1.3840E-02 -8.1474E-03 -1.0045E-02  6.666666666666666E-01  3.333333333333334E-01
 cg2d: Sum(rhs),rhsMax =   3.01980662698043E-14  1.78612610533128E+00
time,SST,SSS,fu,fv,Q,E-P,i0,i1,a,b =   5.1840E+05  2.5296E+01  3.5123E+01 -9.8553E-03  2.7506E-02 -6.4632E+01  0.0000E+00    12     1  7.0000E-01  3.0000E-01
time,fu0,fu1,fu =   5.1840E+05 -1.3840E-02 -8.1474E-03 -9.8553E-03  7.000000000000000E-01  3.000000000000000E-01
 cg2d: Sum(rhs),rhsMax =  -2.75335310107039E-14  1.55419822260222E+00
time,SST,SSS,fu,fv,Q,E-P,i0,i1,a,b =   6.0480E+05  2.5366E+01  3.5115E+01 -9.6655E-03  2.7114E-02 -6.4640E+01  0.0000E+00    12     1  7.3333E-01  2.6667E-01
time,fu0,fu1,fu =   6.0480E+05 -1.3840E-02 -8.1474E-03 -9.6655E-03  7.333333333333333E-01  2.666666666666667E-01
 cg2d: Sum(rhs),rhsMax =   8.88178419700125E-15  1.32823755952540E+00
time,SST,SSS,fu,fv,Q,E-P,i0,i1,a,b =   6.9120E+05  2.5435E+01  3.5108E+01 -9.4758E-03  2.6723E-02 -6.4649E+01  0.0000E+00    12     1  7.6667E-01  2.3333E-01
time,fu0,fu1,fu =   6.9120E+05 -1.3840E-02 -8.1474E-03 -9.4758E-03  7.666666666666667E-01  2.333333333333333E-01
 cg2d: Sum(rhs),rhsMax =  -2.02060590481778E-14  1.15613808765279E+00
time,SST,SSS,fu,fv,Q,E-P,i0,i1,a,b =   7.7760E+05  2.5505E+01  3.5101E+01 -9.2860E-03  2.6332E-02 -6.4657E+01  0.0000E+00    12     1  8.0000E-01  2.0000E-01
time,fu0,fu1,fu =   7.7760E+05 -1.3840E-02 -8.1474E-03 -9.2860E-03  8.000000000000000E-01  2.000000000000000E-01
 cg2d: Sum(rhs),rhsMax =  -1.22124532708767E-15  1.08384893707616E+00
(PID.TID 0000.0001) %CHECKPOINT        10 ckptA
(PID.TID 0000.0001)  MDS_READ_FIELD: opening global file: lev_t_an.bin
 --> objf_test(bi,bj)   =  0.000000000000000E+00
 --> objf_tracer(bi,bj) =  0.000000000000000E+00
 --> objf_atl(bi,bj)    =  0.000000000000000E+00
 --> objf_temp_tut(bi,bj)   =  0.141928142619518E+01
 --> objf_hflux_tut(bi,bj) =  0.478358297175945E-08
 --> objf_test(bi,bj)   =  0.000000000000000E+00
 --> objf_tracer(bi,bj) =  0.000000000000000E+00
 --> objf_atl(bi,bj)    =  0.000000000000000E+00
 --> objf_temp_tut(bi,bj)   =  0.185926148746700E+01
 --> objf_hflux_tut(bi,bj) =  0.000000000000000E+00
 --> objf_test(bi,bj)   =  0.000000000000000E+00
 --> objf_tracer(bi,bj) =  0.000000000000000E+00
 --> objf_atl(bi,bj)    =  0.000000000000000E+00
 --> objf_temp_tut(bi,bj)   =  0.140639570537807E+01
 --> objf_hflux_tut(bi,bj) =  0.000000000000000E+00
 --> objf_test(bi,bj)   =  0.000000000000000E+00
 --> objf_tracer(bi,bj) =  0.000000000000000E+00
 --> objf_atl(bi,bj)    =  0.000000000000000E+00
 --> objf_temp_tut(bi,bj)   =  0.151993756255476E+01
 --> objf_hflux_tut(bi,bj) =  0.000000000000000E+00
  local fc =  0.620487619116217E+01
 global fc =  0.620487619116217E+01
 ph-check fcpertplus =   6.20487619
(PID.TID 0000.0001)  MDS_READ_FIELD: opening file: xx_hfluxm.0000000000.001.001.data
(PID.TID 0000.0001)  MDS_READ_FIELD: opening file: xx_hfluxm.0000000000.002.001.data
(PID.TID 0000.0001)  MDS_READ_FIELD: opening file: xx_hfluxm.0000000000.001.002.data
(PID.TID 0000.0001)  MDS_READ_FIELD: opening file: xx_hfluxm.0000000000.002.002.data
 ph-check fcpertminus =   6.20487645
(PID.TID 0000.0001)  MDS_READ_FIELD: opening file: xx_hfluxm.0000000000.001.001.data
(PID.TID 0000.0001)  MDS_READ_FIELD: opening file: xx_hfluxm.0000000000.002.001.data
(PID.TID 0000.0001)  MDS_READ_FIELD: opening file: xx_hfluxm.0000000000.001.002.data
(PID.TID 0000.0001)  MDS_READ_FIELD: opening file: xx_hfluxm.0000000000.002.002.data
(PID.TID 0000.0001)  MDS_READ_FIELD: opening global file: bathymetry.bin
(PID.TID 0000.0001) // =======================================================
(PID.TID 0000.0001) // Field Model R_low (ini_masks_etc) at iteration          1
(PID.TID 0000.0001) // CMIN =         -5.200000000000000E+03
(PID.TID 0000.0001) // CMAX =         -1.200000000000000E+02
(PID.TID 0000.0001) // CINT =          1.881481481481482E+02
(PID.TID 0000.0001) // SYMBOLS (CMIN->CMAX): -abcdefghijklmnopqrstuvwxyz+
(PID.TID 0000.0001) //                  0.0: .
(PID.TID 0000.0001) // RANGE I (Lo:Hi:Step):(  -1:  92:   1)
(PID.TID 0000.0001) // RANGE J (Lo:Hi:Step):(  42:  -1:  -1)
(PID.TID 0000.0001) // RANGE K (Lo:Hi:Step):(   1:   1:   1)
(PID.TID 0000.0001) // =======================================================
(PID.TID 0000.0001) K =   1
(PID.TID 0000.0001) //                I=8       I=18      I=28      I=38      I=44      I=54      I=64      I=74      I=84
(PID.TID 0000.0001) // |--J--|101234567|901234567|901234567|901234567|901234567|567890123|567890123|567890123|567890123|56789012
(PID.TID 0000.0001) //     42 ............................................zyxxmyxxmgfeeefefgimnpwwwy..+zyy.....yyyyoiiihhz+.....
(PID.TID 0000.0001) //     41 ..................................................................................................
(PID.TID 0000.0001) //     40 qlloqz+.++++zzz++++++......................................................................+++qllo
(PID.TID 0000.0001) //     39 slloorzzzzzzzzz+...++.........................................................yxxz........+zvusllo
(PID.TID 0000.0001) //     38 mqpporzzzzzz+++...............................................................zxxy+......zyyvsmqpp
(PID.TID 0000.0001) //     37 mmmuz......................................................................++...zy+...yttyy.+smmmu
(PID.TID 0000.0001) //     36 utt+.........................................mm++mm++....................+++++++znmm.yoowssvuyutt+
(PID.TID 0000.0001) //     35 ++++.................................+zzz..rrmmkkmmkk+...+gghn...........+++....+nmiijlsoopuww++++
(PID.TID 0000.0001) //     34 .....................................+vvy.ggqyxv+yxv+y.ccdffhim..................+nihhikkihhm+....
(PID.TID 0000.0001) //     33 +.....................................uuz---h----------aaabdefin+.................zqvddflifffw+...
(PID.TID 0000.0001) //     32 +.....................................+t----h-------------acdfgnn................+++gdffkofffm+...
(PID.TID 0000.0001) //     31 ......................................-----ad------------abddegil..............qbaafccdhqqgddm....
(PID.TID 0000.0001) //     30 .....................................f----b--b---b------------abd............zfbb--fbcdosjfddi....
(PID.TID 0000.0001) //     29 ...................................tu----e---fjg-fjg----------abdf...........eaac--abfmijaadgi....
(PID.TID 0000.0001) //     28 .................................+xfl-----------------------bdedefi.........qbaa---aemfbbaaejz....
(PID.TID 0000.0001) //     27 ................xx..............+wfgfpf--------ea--eallc---bbbccefgi...+++x.qb-----akfa---ah......
(PID.TID 0000.0001) //     26 ................xnn...........+vd---dna------a--aa--aicfna---aabdfghku.++xssuy-----bgca---ci......
(PID.TID 0000.0001) //     25 ................iiik...oo+...+ivd---doaa-bc--ilglilglf--aa---aabcghhkll...ssum+xaaacjbaabdjk......
(PID.TID 0000.0001) //     24 ..............xnheeft.kkk+...uii.aagdm----aa---------a-------bbbcdefjljjju.zummwwbbchba--abi......
(PID.TID 0000.0001) //     23 ..............xgheefp.iikw...uuw..fihi----fed---------eaaa--bbbbcdfflkjiiiq....zykccefa--abd......
(PID.TID 0000.0001) //     22 uss...........bbelffslffkk...zz.wqkeeqoheccdfa---a-----egabaabcdddegghliiiqq......xeeehheehccquss.
(PID.TID 0000.0001) //     21 bbeir........nbbcdjhqdddiiz.....wqfeelgghmedea---a-----bibbcddddddefghklnqoo........ieeflhgcccbbei
(PID.TID 0000.0001) //     20 bbder.......ldcccdgkccccidd......z.vkkktqqhegg---g----aaacddddddddefghkiiijl.........nhfa--gfcbbde
(PID.TID 0000.0001) //     19 cdaaf.......kddosggpaaaibbccx...+z+.....r+nlec---c---agaaabcddccddefikfgffff...........d---cjhcdaa
(PID.TID 0000.0001) //     22 uss...........bbelffslffkk...zz.wqkeeqoheccdfa---a-----egabaabcdddegghliiiqq......xeeehheehccquss.
(PID.TID 0000.0001) //     21 bbeir........nbbcdjhqdddiiz.....wqfeelgghmedea---a-----bibbcddddddefghklnqoo........ieeflhgcccbbei
(PID.TID 0000.0001) //     20 bbder.......ldcccdgkccccidd......z.vkkktqqhegg---g----aaacddddddddefghkiiijl.........nhfa--gfcbbde
(PID.TID 0000.0001) //     19 cdaaf.......kddosggpaaaibbccx...+z+.....r+nlec---c---agaaabcddccddefikfgffff...........d---cjhcdaa
(PID.TID 0000.0001) //     18 d---d.......kglggvliaaaibbcaaeaiv++...qqzolhecccfcccfdgkaabcdfccdeeikgfgffdd+..........d---djhd---
(PID.TID 0000.0001) //     17 c---c.......l.feewlfaaaoaa----aiv.....qqnllslmlofmlofcdbaacceffffhhligfigeddj.........hd---ckhc---
(PID.TID 0000.0001) //     16 ba--c......tn.ddgnlfdaaqa-----lv.......vnllvllnwvlnwv--accivomfffhilhgfffeddjf........re--aeigba--
(PID.TID 0000.0001) //     15 b--dpz....+ll.ccdfhmdddlc----av.........otsxoomv-omv---abccddfihgijkhgfffeejfff......+fd---ckfb--d
(PID.TID 0000.0001) //     14 c--mcl....weeqbaafilkfend--eagy.........hhstofft-fft----aacdheefijkmjhhjijiffff.....zlfdaaadlfc--m
(PID.TID 0000.0001) //     13 cclbbg....nccobaaiddgkffqrqeaal.........eeutqfft-fft------aaceeffhijlkjhhigfffq....+jgfodccflhcclb
(PID.TID 0000.0001) //     12 hgaaacw+iiicclemhdddfliigfdcaabfaaaz....ccsurqpc-qpc--------abcifffikiiihhggff.....kbbbdfffglhhgaa
(PID.TID 0000.0001) //     11 gcaaacbbifccennhbbdefnihgfdccaaaa----..dcccnt.nca.ncab-------aabcdfilhggjiggff....l---abcefjlkgcaa
(PID.TID 0000.0001) //     10 fcaaccbdaacfrllfbbdegkmmljhfdddba----d.dcccfx.nyr.nyrebaba----abcdgilhfeegijgi..+w--aa-abcfilkfcaa
(PID.TID 0000.0001) //      9 ffcdcccaaaoqsolfdeehikihhlllgfedcccccdmdcccf.vyfavyfaaaaaaaa--abdehmjhfeeefglv.++w-----abcdfklffcd
(PID.TID 0000.0001) //      8 iffjklcaafddffeeccvznkfffhhhlkjifgjkkfeeddfsyvcaavcaaaaaaccdcccdfgjligedbbceg+.++xffn--cfddefliffj
(PID.TID 0000.0001) //      7 mqnnbbkkf--bmbaabbgtykfddeffeeddccdfhlffeelfbaaaaaaaaaacddeghgjgjlligeddaaabedfiiiiiisvkfkecchmqnn
(PID.TID 0000.0001) //      6 ca-------------aabcelttdddedddddccccdfkkiiffbaaaaaaaabcdgimmkmefecaaabbbaaabbdfiiiiispmmregifcca--
(PID.TID 0000.0001) //      5 -------a-------aaccehhhiddeddddddcccdfiikomodddefddefffmlmigedccaaaaaaaababbbdfiijsqgeccccbaa-----
(PID.TID 0000.0001) //      4 -ahebaabbbbbeihffgijiiiijpywnnpokkomkiiijmmmolkomlkommmgffeeedccaaaaaabbcccefhmz..yjgeccccbaa--ahe
(PID.TID 0000.0001) //      3 ffhhrpjiiwyy............................yxotmjjjjjjjjgfeeeeeeddeffffheddeghjkyy..yqjgeddccdbbgffhh
(PID.TID 0000.0001) //      2 ............................................zyxxmyxxmgfeeefefgimnpwwwy..+zyy.....yyyyoiiihhz+.....
(PID.TID 0000.0001) //      1 ..................................................................................................
(PID.TID 0000.0001) //      0 qlloqz+.++++zzz++++++......................................................................+++qllo
(PID.TID 0000.0001) //     -1 slloorzzzzzzzzz+...++.........................................................yxxz........+zvusllo
(PID.TID 0000.0001) // =======================================================
(PID.TID 0000.0001) // END OF FIELD                                          =
(PID.TID 0000.0001) // =======================================================
(PID.TID 0000.0001) 
(PID.TID 0000.0001) // =======================================================
(PID.TID 0000.0001) // Field Model Ro_surf (ini_masks_etc) at iteration          1
(PID.TID 0000.0001) // CMIN =          1.000000000000000E+32
(PID.TID 0000.0001) // CMAX =         -1.000000000000000E+32
(PID.TID 0000.0001) // CINT =          0.000000000000000E+00
(PID.TID 0000.0001) // SYMBOLS (CMIN->CMAX): -abcdefghijklmnopqrstuvwxyz+
(PID.TID 0000.0001) //                  0.0: .
(PID.TID 0000.0001) // RANGE I (Lo:Hi:Step):(  -1:  92:   1)
(PID.TID 0000.0001) // RANGE J (Lo:Hi:Step):(  42:  -1:  -1)
(PID.TID 0000.0001) // RANGE K (Lo:Hi:Step):(   1:   1:   1)
(PID.TID 0000.0001) // =======================================================
(PID.TID 0000.0001) // =======================================================
(PID.TID 0000.0001) // END OF FIELD                                          =
(PID.TID 0000.0001) // =======================================================
(PID.TID 0000.0001) 
(PID.TID 0000.0001) // =======================================================
(PID.TID 0000.0001) // Field hFacC at iteration          1
(PID.TID 0000.0001) // CMIN =          1.000000000000000E+00
(PID.TID 0000.0001) // CMAX =          1.000000000000000E+00
(PID.TID 0000.0001) // CINT =          0.000000000000000E+00
(PID.TID 0000.0001) // SYMBOLS (CMIN->CMAX): -abcdefghijklmnopqrstuvwxyz+
(PID.TID 0000.0001) //                  0.0: .
(PID.TID 0000.0001) // RANGE I (Lo:Hi:Step):(  -1:  92:   1)
(PID.TID 0000.0001) // RANGE J (Lo:Hi:Step):(  42:  -1:  -1)
(PID.TID 0000.0001) // RANGE K (Lo:Hi:Step):(   1:   1:   1)
(PID.TID 0000.0001) // =======================================================
(PID.TID 0000.0001) // =======================================================
(PID.TID 0000.0001) // END OF FIELD                                          =
(PID.TID 0000.0001) // =======================================================
(PID.TID 0000.0001) 
(PID.TID 0000.0001) // =======================================================
(PID.TID 0000.0001) // Field hFacW at iteration          1
(PID.TID 0000.0001) // CMIN =          1.000000000000000E+00
(PID.TID 0000.0001) // CMAX =          1.000000000000000E+00
(PID.TID 0000.0001) // CINT =          0.000000000000000E+00
(PID.TID 0000.0001) // SYMBOLS (CMIN->CMAX): -abcdefghijklmnopqrstuvwxyz+
(PID.TID 0000.0001) //                  0.0: .
(PID.TID 0000.0001) // RANGE I (Lo:Hi:Step):(  -1:  92:   1)
(PID.TID 0000.0001) // RANGE J (Lo:Hi:Step):(  42:  -1:  -1)
(PID.TID 0000.0001) // RANGE K (Lo:Hi:Step):(   1:   1:   1)
(PID.TID 0000.0001) // =======================================================
(PID.TID 0000.0001) // =======================================================
(PID.TID 0000.0001) // END OF FIELD                                          =
(PID.TID 0000.0001) // =======================================================
(PID.TID 0000.0001) 
(PID.TID 0000.0001) // =======================================================
(PID.TID 0000.0001) // Field hFacS at iteration          1
(PID.TID 0000.0001) // CMIN =          1.000000000000000E+00
(PID.TID 0000.0001) // CMAX =          1.000000000000000E+00
(PID.TID 0000.0001) // CINT =          0.000000000000000E+00
(PID.TID 0000.0001) // SYMBOLS (CMIN->CMAX): -abcdefghijklmnopqrstuvwxyz+
(PID.TID 0000.0001) //                  0.0: .
(PID.TID 0000.0001) // RANGE I (Lo:Hi:Step):(  -1:  92:   1)
(PID.TID 0000.0001) // RANGE J (Lo:Hi:Step):(  42:  -1:  -1)
(PID.TID 0000.0001) // RANGE K (Lo:Hi:Step):(   1:   1:   1)
(PID.TID 0000.0001) // =======================================================
(PID.TID 0000.0001) // =======================================================
(PID.TID 0000.0001) // END OF FIELD                                          =
(PID.TID 0000.0001) // =======================================================
(PID.TID 0000.0001) 
(PID.TID 0000.0001) %MON surfExpanfCori_max           =   1.4265546244797E-04
(PID.TID 0000.0001) %MON surfExpanfCori_min           =  -1.4265546244797E-04
(PID.TID 0000.0001) %MON surfExpanfCori_mean          =   4.7801269115805E-19
(PID.TID 0000.0001) %MON surfExpanfCori_sd            =   9.6599226301546E-05
(PID.TID 0000.0001) %MON surfExpanfCoriG_max          =   1.4151032568025E-04
(PID.TID 0000.0001) %MON surfExpanfCoriG_min          =  -1.4362679550910E-04
(PID.TID 0000.0001) %MON surfExpanfCoriG_mean         =  -3.5906698877273E-06
(PID.TID 0000.0001) %MON surfExpanfCoriG_sd           =   9.6548915696246E-05
(PID.TID 0000.0001) %MON surfExpanfCoriCos_max        =   1.4575362704741E-04
(PID.TID 0000.0001) %MON surfExpanfCoriCos_min        =   3.0322354601388E-05
(PID.TID 0000.0001) %MON surfExpanfCoriCos_mean       =   1.0288600773633E-04
(PID.TID 0000.0001) %MON surfExpanfCoriCos_sd         =   3.6784304327266E-05
(PID.TID 0000.0001) INI_CG2D: CG2D normalisation factor =  6.5682677425711703E-05
(PID.TID 0000.0001) 
(PID.TID 0000.0001)  MDS_READ_FIELD: opening global file: lev_t.bin
(PID.TID 0000.0001)  MDS_READ_FIELD: opening global file: lev_s.bin
(PID.TID 0000.0001) Start initial hydrostatic pressure computation
(PID.TID 0000.0001) Pressure is predetermined for buoyancyRelation OCEANIC
(PID.TID 0000.0001) 
(PID.TID 0000.0001)  MDS_READ_FIELD: opening global file: trenberth_taux.bin
(PID.TID 0000.0001)  MDS_READ_FIELD: opening global file: trenberth_tauy.bin
(PID.TID 0000.0001)  MDS_READ_FIELD: opening global file: ncep_qnet.bin
(PID.TID 0000.0001)  MDS_READ_FIELD: opening global file: lev_sst.bin
(PID.TID 0000.0001)  MDS_READ_FIELD: opening global file: lev_sss.bin
(PID.TID 0000.0001) // =======================================================
(PID.TID 0000.0001) // Model current state
(PID.TID 0000.0001) // =======================================================
(PID.TID 0000.0001) 
S/R EXTERNAL_FIELDS_LOAD: Reading new data:   12    1         0  0.000000000000E+00
(PID.TID 0000.0001)  MDS_READ_FIELD: opening global file: trenberth_taux.bin
(PID.TID 0000.0001)  MDS_READ_FIELD: opening global file: trenberth_taux.bin
(PID.TID 0000.0001)  MDS_READ_FIELD: opening global file: trenberth_tauy.bin
(PID.TID 0000.0001)  MDS_READ_FIELD: opening global file: trenberth_tauy.bin
(PID.TID 0000.0001)  MDS_READ_FIELD: opening global file: ncep_qnet.bin
(PID.TID 0000.0001)  MDS_READ_FIELD: opening global file: ncep_qnet.bin
(PID.TID 0000.0001)  MDS_READ_FIELD: opening global file: lev_sst.bin
(PID.TID 0000.0001)  MDS_READ_FIELD: opening global file: lev_sst.bin
(PID.TID 0000.0001)  MDS_READ_FIELD: opening global file: lev_sss.bin
(PID.TID 0000.0001)  MDS_READ_FIELD: opening global file: lev_sss.bin
time,SST,SSS,fu,fv,Q,E-P,i0,i1,a,b =   0.0000E+00  2.4878E+01  3.5166E+01 -1.0994E-02  2.9853E-02 -6.4581E+01  0.0000E+00    12     1  5.0000E-01  5.0000E-01
time,fu0,fu1,fu =   0.0000E+00 -1.3840E-02 -8.1474E-03 -1.0994E-02  5.000000000000000E-01  5.000000000000000E-01
(PID.TID 0000.0001)  MDS_READ_FIELD: opening file: xx_hfluxm.0000000000.001.001.data
(PID.TID 0000.0001)  MDS_READ_FIELD: opening file: xx_hfluxm.0000000000.002.001.data
(PID.TID 0000.0001)  MDS_READ_FIELD: opening file: xx_hfluxm.0000000000.001.002.data
(PID.TID 0000.0001)  MDS_READ_FIELD: opening file: xx_hfluxm.0000000000.002.002.data
 cg2d: Sum(rhs),rhsMax =   4.21884749357559E-15  2.54952604282385E+00
time,SST,SSS,fu,fv,Q,E-P,i0,i1,a,b =   8.6400E+04  2.4948E+01  3.5159E+01 -1.0804E-02  2.9462E-02 -6.4589E+01  0.0000E+00    12     1  5.3333E-01  4.6667E-01
time,fu0,fu1,fu =   8.6400E+04 -1.3840E-02 -8.1474E-03 -1.0804E-02  5.333333333333333E-01  4.666666666666667E-01
 cg2d: Sum(rhs),rhsMax =   3.33066907387547E-15  2.62443215722193E+00
time,SST,SSS,fu,fv,Q,E-P,i0,i1,a,b =   1.7280E+05  2.5017E+01  3.5152E+01 -1.0614E-02  2.9071E-02 -6.4598E+01  0.0000E+00    12     1  5.6667E-01  4.3333E-01
time,fu0,fu1,fu =   1.7280E+05 -1.3840E-02 -8.1474E-03 -1.0614E-02  5.666666666666667E-01  4.333333333333333E-01
 cg2d: Sum(rhs),rhsMax =   2.29816166097407E-14  2.39923446840245E+00
time,SST,SSS,fu,fv,Q,E-P,i0,i1,a,b =   2.5920E+05  2.5087E+01  3.5144E+01 -1.0425E-02  2.8680E-02 -6.4606E+01  0.0000E+00    12     1  6.0000E-01  4.0000E-01
time,fu0,fu1,fu =   2.5920E+05 -1.3840E-02 -8.1474E-03 -1.0425E-02  6.000000000000000E-01  4.000000000000000E-01
 cg2d: Sum(rhs),rhsMax =   3.55271367880050E-15  2.21574359151248E+00
time,SST,SSS,fu,fv,Q,E-P,i0,i1,a,b =   3.4560E+05  2.5157E+01  3.5137E+01 -1.0235E-02  2.8288E-02 -6.4615E+01  0.0000E+00    12     1  6.3333E-01  3.6667E-01
time,fu0,fu1,fu =   3.4560E+05 -1.3840E-02 -8.1474E-03 -1.0235E-02  6.333333333333333E-01  3.666666666666667E-01
 cg2d: Sum(rhs),rhsMax =  -1.15463194561016E-14  2.00995911954163E+00
time,SST,SSS,fu,fv,Q,E-P,i0,i1,a,b =   4.3200E+05  2.5226E+01  3.5130E+01 -1.0045E-02  2.7897E-02 -6.4623E+01  0.0000E+00    12     1  6.6667E-01  3.3333E-01
time,fu0,fu1,fu =   4.3200E+05 -1.3840E-02 -8.1474E-03 -1.0045E-02  6.666666666666666E-01  3.333333333333334E-01
 cg2d: Sum(rhs),rhsMax =  -3.99680288865056E-14  1.78612610532935E+00
time,SST,SSS,fu,fv,Q,E-P,i0,i1,a,b =   5.1840E+05  2.5296E+01  3.5123E+01 -9.8553E-03  2.7506E-02 -6.4632E+01  0.0000E+00    12     1  7.0000E-01  3.0000E-01
time,fu0,fu1,fu =   5.1840E+05 -1.3840E-02 -8.1474E-03 -9.8553E-03  7.000000000000000E-01  3.000000000000000E-01
 cg2d: Sum(rhs),rhsMax =  -2.57571741713036E-14  1.55419822260063E+00
time,SST,SSS,fu,fv,Q,E-P,i0,i1,a,b =   6.0480E+05  2.5366E+01  3.5115E+01 -9.6655E-03  2.7114E-02 -6.4640E+01  0.0000E+00    12     1  7.3333E-01  2.6667E-01
time,fu0,fu1,fu =   6.0480E+05 -1.3840E-02 -8.1474E-03 -9.6655E-03  7.333333333333333E-01  2.666666666666667E-01
 cg2d: Sum(rhs),rhsMax =  -4.44089209850063E-16  1.32823755952785E+00
time,SST,SSS,fu,fv,Q,E-P,i0,i1,a,b =   6.9120E+05  2.5435E+01  3.5108E+01 -9.4758E-03  2.6723E-02 -6.4649E+01  0.0000E+00    12     1  7.6667E-01  2.3333E-01
time,fu0,fu1,fu =   6.9120E+05 -1.3840E-02 -8.1474E-03 -9.4758E-03  7.666666666666667E-01  2.333333333333333E-01
 cg2d: Sum(rhs),rhsMax =  -3.70814490224802E-14  1.15613808765072E+00
time,SST,SSS,fu,fv,Q,E-P,i0,i1,a,b =   7.7760E+05  2.5505E+01  3.5101E+01 -9.2860E-03  2.6332E-02 -6.4657E+01  0.0000E+00    12     1  8.0000E-01  2.0000E-01
time,fu0,fu1,fu =   7.7760E+05 -1.3840E-02 -8.1474E-03 -9.2860E-03  8.000000000000000E-01  2.000000000000000E-01
 cg2d: Sum(rhs),rhsMax =   4.17443857259059E-14  1.08384893707508E+00
(PID.TID 0000.0001) %CHECKPOINT        10 ckptB
(PID.TID 0000.0001)  MDS_READ_FIELD: opening global file: lev_t_an.bin
 --> objf_test(bi,bj)   =  0.000000000000000E+00
 --> objf_tracer(bi,bj) =  0.000000000000000E+00
 --> objf_atl(bi,bj)    =  0.000000000000000E+00
 --> objf_temp_tut(bi,bj)   =  0.141928195850993E+01
 --> objf_hflux_tut(bi,bj) =  0.478358297175945E-08
 --> objf_test(bi,bj)   =  0.000000000000000E+00
 --> objf_tracer(bi,bj) =  0.000000000000000E+00
 --> objf_atl(bi,bj)    =  0.000000000000000E+00
 --> objf_temp_tut(bi,bj)   =  0.185926149329667E+01
 --> objf_hflux_tut(bi,bj) =  0.000000000000000E+00
 --> objf_test(bi,bj)   =  0.000000000000000E+00
 --> objf_tracer(bi,bj) =  0.000000000000000E+00
 --> objf_atl(bi,bj)    =  0.000000000000000E+00
 --> objf_temp_tut(bi,bj)   =  0.140639570537630E+01
 --> objf_hflux_tut(bi,bj) =  0.000000000000000E+00
 --> objf_test(bi,bj)   =  0.000000000000000E+00
 --> objf_tracer(bi,bj) =  0.000000000000000E+00
 --> objf_atl(bi,bj)    =  0.000000000000000E+00
 --> objf_temp_tut(bi,bj)   =  0.151993756255270E+01
 --> objf_hflux_tut(bi,bj) =  0.000000000000000E+00
  local fc =  0.620487672930277E+01
 global fc =  0.620487672930277E+01
(PID.TID 0000.0001)  MDS_READ_FIELD: opening file: xx_hfluxm.0000000000.001.001.data
(PID.TID 0000.0001)  MDS_READ_FIELD: opening file: xx_hfluxm.0000000000.002.001.data
(PID.TID 0000.0001)  MDS_READ_FIELD: opening file: xx_hfluxm.0000000000.001.002.data
(PID.TID 0000.0001)  MDS_READ_FIELD: opening file: xx_hfluxm.0000000000.002.002.data
grad-res -------------------------------
 grad-res     0    3   45    2    1    1    1    1   0.620487645063E+01 0.620487619116E+01 0.620487672930E+01
 grad-res     0    3    3    3  669    1    1    1   -.269070287234E-05 -.269070298486E-05 -.418189369800E-07
(PID.TID 0000.0001)   ADM  precision_derivative_cost =    6.20487645062636E+00
(PID.TID 0000.0001)   ADM  precision_derivative_grad =   -2.69070287234207E-06
 ph-grd  ierr ---------------------------
 ph-grd  ierr =  0, icomp =  3, ichknum =  3
(PID.TID 0000.0001) 
(PID.TID 0000.0001) // =======================================================
(PID.TID 0000.0001) // Gradient check results  >>> START <<<
(PID.TID 0000.0001) // =======================================================
(PID.TID 0000.0001) 
(PID.TID 0000.0001) 
(PID.TID 0000.0001)  EPS =  0.100E+00
(PID.TID 0000.0001) grdchk output:            procId               I        ITILEPOS        JTILEPOS           LAYER            X(I)      X(I)+/-EPS
(PID.TID 0000.0001) grdchk output:                                FC             FC1             FC2 FC1-FC2/(2*EPS)    ADJ GRAD(FC)   1-FDGRD/ADGRD
(PID.TID 0000.0001) grdchk output:                 0               1              43               2               1 0.000000000E+00 -.100000000E+00
(PID.TID 0000.0001) grdchk output:                   0.620487645E+01 0.620487619E+01 0.620487673E+01 -.270388883E-05 -.270388859E-05 -.888553922E-07
(PID.TID 0000.0001) 
(PID.TID 0000.0001) grdchk output:                 0               2              44               2               1 0.000000000E+00 -.100000000E+00
(PID.TID 0000.0001) grdchk output:                   0.620487645E+01 0.620487618E+01 0.620487674E+01 -.277387107E-05 -.277387098E-05 -.342102504E-07
(PID.TID 0000.0001) 
(PID.TID 0000.0001) grdchk output:                 0               3              45               2               1 0.000000000E+00 -.100000000E+00
(PID.TID 0000.0001) grdchk output:                   0.620487645E+01 0.620487619E+01 0.620487673E+01 -.269070298E-05 -.269070287E-05 -.418189370E-07
(PID.TID 0000.0001) 
(PID.TID 0000.0001) 
(PID.TID 0000.0001) // =======================================================
(PID.TID 0000.0001) // Gradient check results  >>> END <<<
(PID.TID 0000.0001) // =======================================================
(PID.TID 0000.0001) 
(PID.TID 0000.0001)   Seconds in section "ALL                    [THE_MODEL_MAIN]":
(PID.TID 0000.0001)           User time:  146.833671
(PID.TID 0000.0001)         System time:  1.58875901
(PID.TID 0000.0001)     Wall clock time:  151.767776
(PID.TID 0000.0001)          No. starts: 1
(PID.TID 0000.0001)           No. stops: 1
(PID.TID 0000.0001)   Seconds in section "INITIALISE_FIXED       [THE_MODEL_MAIN]":
(PID.TID 0000.0001)           User time:  0.317952015
(PID.TID 0000.0001)         System time:  0.0669900032
(PID.TID 0000.0001)     Wall clock time:  0.602710009
(PID.TID 0000.0001)          No. starts: 1
(PID.TID 0000.0001)           No. stops: 1
(PID.TID 0000.0001)   Seconds in section "ADTHE_MAIN_LOOP          [ADJOINT RUN]":
(PID.TID 0000.0001)           User time:  69.2044778
(PID.TID 0000.0001)         System time:  1.20481702
(PID.TID 0000.0001)     Wall clock time:  72.3758559
(PID.TID 0000.0001)          No. starts: 1
(PID.TID 0000.0001)           No. stops: 1
(PID.TID 0000.0001)   Seconds in section "LOAD_FIELDS_DRIVER  [FORWARD_STEP]":
(PID.TID 0000.0001)           User time:  0.194957256
(PID.TID 0000.0001)         System time:  0.0159948468
(PID.TID 0000.0001)     Wall clock time:  0.301679373
(PID.TID 0000.0001)          No. starts: 80
(PID.TID 0000.0001)           No. stops: 80
(PID.TID 0000.0001)   Seconds in section "EXTERNAL_FLDS_LOAD [LOAD_FLDS_DRIVER]":
(PID.TID 0000.0001)           User time:  0.207960129
(PID.TID 0000.0001)         System time:  0.0209938586
(PID.TID 0000.0001)     Wall clock time:  0.320648193
(PID.TID 0000.0001)          No. starts: 90
(PID.TID 0000.0001)           No. stops: 90
(PID.TID 0000.0001)   Seconds in section "DO_ATMOSPHERIC_PHYS [FORWARD_STEP]":
(PID.TID 0000.0001)           User time:  0.00199890137
(PID.TID 0000.0001)         System time:  0.
(PID.TID 0000.0001)     Wall clock time:  0.00321817398
(PID.TID 0000.0001)          No. starts: 80
(PID.TID 0000.0001)           No. stops: 80
(PID.TID 0000.0001)   Seconds in section "DO_OCEANIC_PHYS     [FORWARD_STEP]":
(PID.TID 0000.0001)           User time:  19.1741025
(PID.TID 0000.0001)         System time:  0.0179959685
(PID.TID 0000.0001)     Wall clock time:  19.2074449
(PID.TID 0000.0001)          No. starts: 80
(PID.TID 0000.0001)           No. stops: 80
(PID.TID 0000.0001)   Seconds in section "THERMODYNAMICS      [FORWARD_STEP]":
(PID.TID 0000.0001)           User time:  21.1957834
(PID.TID 0000.0001)         System time:  0.0199981332
(PID.TID 0000.0001)     Wall clock time:  21.2385805
(PID.TID 0000.0001)          No. starts: 80
(PID.TID 0000.0001)           No. stops: 80
(PID.TID 0000.0001)   Seconds in section "DYNAMICS            [FORWARD_STEP]":
(PID.TID 0000.0001)           User time:  30.1983844
(PID.TID 0000.0001)         System time:  0.0269970149
(PID.TID 0000.0001)     Wall clock time:  30.2377052
(PID.TID 0000.0001)          No. starts: 80
(PID.TID 0000.0001)           No. stops: 80
(PID.TID 0000.0001)   Seconds in section "SOLVE_FOR_PRESSURE  [FORWARD_STEP]":
(PID.TID 0000.0001)           User time:  19.7709808
(PID.TID 0000.0001)         System time:  0.0159990042
(PID.TID 0000.0001)     Wall clock time:  19.8032038
(PID.TID 0000.0001)          No. starts: 80
(PID.TID 0000.0001)           No. stops: 80
(PID.TID 0000.0001)   Seconds in section "MOM_CORRECTION_STEP [FORWARD_STEP]":
(PID.TID 0000.0001)           User time:  2.32066989
(PID.TID 0000.0001)         System time:  0.000999987125
(PID.TID 0000.0001)     Wall clock time:  2.32430482
(PID.TID 0000.0001)          No. starts: 80
(PID.TID 0000.0001)           No. stops: 80
(PID.TID 0000.0001)   Seconds in section "UPDATE_ETAH         [FORWARD_STEP]":
(PID.TID 0000.0001)           User time:  0.0179758072
(PID.TID 0000.0001)         System time:  0.
(PID.TID 0000.0001)     Wall clock time:  0.0216031075
(PID.TID 0000.0001)          No. starts: 80
(PID.TID 0000.0001)           No. stops: 80
(PID.TID 0000.0001)   Seconds in section "TRC_CORRECTION_STEP [FORWARD_STEP]":
(PID.TID 0000.0001)           User time:  0.422893047
(PID.TID 0000.0001)         System time:  0.000999003649
(PID.TID 0000.0001)     Wall clock time:  0.421249151
(PID.TID 0000.0001)          No. starts: 80
(PID.TID 0000.0001)           No. stops: 80
(PID.TID 0000.0001)   Seconds in section "BLOCKING_EXCHANGES  [FORWARD_STEP]":
(PID.TID 0000.0001)           User time:  0.773921251
(PID.TID 0000.0001)         System time:  0.000999987125
(PID.TID 0000.0001)     Wall clock time:  0.776844501
(PID.TID 0000.0001)          No. starts: 80
(PID.TID 0000.0001)           No. stops: 80
(PID.TID 0000.0001)   Seconds in section "DO_STATEVARS_TAVE   [FORWARD_STEP]":
(PID.TID 0000.0001)           User time:  0.79689312
(PID.TID 0000.0001)         System time:  0.0159980059
(PID.TID 0000.0001)     Wall clock time:  0.811755419
(PID.TID 0000.0001)          No. starts: 80
(PID.TID 0000.0001)           No. stops: 80
(PID.TID 0000.0001)   Seconds in section "MONITOR             [FORWARD_STEP]":
(PID.TID 0000.0001)           User time:  1.2768054
(PID.TID 0000.0001)         System time:  0.00100000203
(PID.TID 0000.0001)     Wall clock time:  1.27740121
(PID.TID 0000.0001)          No. starts: 80
(PID.TID 0000.0001)           No. stops: 80
(PID.TID 0000.0001)   Seconds in section "COST_TILE           [FORWARD_STEP]":
(PID.TID 0000.0001)           User time:  2.38260484
(PID.TID 0000.0001)         System time:  0.00299888849
(PID.TID 0000.0001)     Wall clock time:  2.38971138
(PID.TID 0000.0001)          No. starts: 80
(PID.TID 0000.0001)           No. stops: 80
(PID.TID 0000.0001)   Seconds in section "DO_THE_MODEL_IO     [FORWARD_STEP]":
(PID.TID 0000.0001)           User time:  0.698894978
(PID.TID 0000.0001)         System time:  0.0559921265
(PID.TID 0000.0001)     Wall clock time:  0.83838892
(PID.TID 0000.0001)          No. starts: 80
(PID.TID 0000.0001)           No. stops: 80
(PID.TID 0000.0001)   Seconds in section "DO_WRITE_PICKUP     [FORWARD_STEP]":
(PID.TID 0000.0001)           User time:  1.81574249
(PID.TID 0000.0001)         System time:  0.178970695
(PID.TID 0000.0001)     Wall clock time:  2.27783656
(PID.TID 0000.0001)          No. starts: 80
(PID.TID 0000.0001)           No. stops: 80
(PID.TID 0000.0001)   Seconds in section "CTRL_PACK           [THE_MODEL_MAIN]":
(PID.TID 0000.0001)           User time:  0.0239944458
(PID.TID 0000.0001)         System time:  0.00499892235
(PID.TID 0000.0001)     Wall clock time:  0.269710064
(PID.TID 0000.0001)          No. starts: 1
(PID.TID 0000.0001)           No. stops: 1
(PID.TID 0000.0001)   Seconds in section "CTRL_PACK     [THE_MODEL_MAIN]":
(PID.TID 0000.0001)           User time:  0.0279998779
(PID.TID 0000.0001)         System time:  0.00200009346
(PID.TID 0000.0001)     Wall clock time:  0.0311470032
(PID.TID 0000.0001)          No. starts: 1
(PID.TID 0000.0001)           No. stops: 1
(PID.TID 0000.0001)   Seconds in section "GRDCHK_MAIN         [THE_MODEL_MAIN]":
(PID.TID 0000.0001)           User time:  77.2592468
(PID.TID 0000.0001)         System time:  0.309952974
(PID.TID 0000.0001)     Wall clock time:  78.4880519
(PID.TID 0000.0001)          No. starts: 1
(PID.TID 0000.0001)           No. stops: 1
(PID.TID 0000.0001)   Seconds in section "INITIALISE_VARIA    [THE_MAIN_LOOP]":
(PID.TID 0000.0001)           User time:  2.00170135
(PID.TID 0000.0001)         System time:  0.0579912663
(PID.TID 0000.0001)     Wall clock time:  2.37333107
(PID.TID 0000.0001)          No. starts: 6
(PID.TID 0000.0001)           No. stops: 6
(PID.TID 0000.0001)   Seconds in section "MAIN LOOP           [THE_MAIN_LOOP]":
(PID.TID 0000.0001)           User time:  75.1685791
(PID.TID 0000.0001)         System time:  0.224965811
(PID.TID 0000.0001)     Wall clock time:  75.9497952
(PID.TID 0000.0001)          No. starts: 6
(PID.TID 0000.0001)           No. stops: 6
(PID.TID 0000.0001)   Seconds in section "FORWARD_STEP        [THE_MAIN_LOOP]":
(PID.TID 0000.0001)           User time:  74.0797501
(PID.TID 0000.0001)         System time:  0.216966748
(PID.TID 0000.0001)     Wall clock time:  74.7512133
(PID.TID 0000.0001)          No. starts: 60
(PID.TID 0000.0001)           No. stops: 60
(PID.TID 0000.0001)   Seconds in section "COST_FINAL         [ADJOINT SPIN-DOWN]":
(PID.TID 0000.0001)           User time:  0.115974426
(PID.TID 0000.0001)         System time:  0.00799906254
(PID.TID 0000.0001)     Wall clock time:  0.223782063
(PID.TID 0000.0001)          No. starts: 6
(PID.TID 0000.0001)           No. stops: 6
(PID.TID 0000.0001) // ======================================================
(PID.TID 0000.0001) // Tile <-> Tile communication statistics
(PID.TID 0000.0001) // ======================================================
(PID.TID 0000.0001) // o Tile number: 000001
(PID.TID 0000.0001) //         No. X exchanges =              0
(PID.TID 0000.0001) //            Max. X spins =              0
(PID.TID 0000.0001) //            Min. X spins =     1000000000
(PID.TID 0000.0001) //          Total. X spins =              0
(PID.TID 0000.0001) //            Avg. X spins =       0.00E+00
(PID.TID 0000.0001) //         No. Y exchanges =              0
(PID.TID 0000.0001) //            Max. Y spins =              0
(PID.TID 0000.0001) //            Min. Y spins =     1000000000
(PID.TID 0000.0001) //          Total. Y spins =              0
(PID.TID 0000.0001) //            Avg. Y spins =       0.00E+00
(PID.TID 0000.0001) // o Tile number: 000002
(PID.TID 0000.0001) //         No. X exchanges =              0
(PID.TID 0000.0001) //            Max. X spins =              0
(PID.TID 0000.0001) //            Min. X spins =     1000000000
(PID.TID 0000.0001) //          Total. X spins =              0
(PID.TID 0000.0001) //            Avg. X spins =       0.00E+00
(PID.TID 0000.0001) //         No. Y exchanges =              0
(PID.TID 0000.0001) //            Max. Y spins =              0
(PID.TID 0000.0001) //            Min. Y spins =     1000000000
(PID.TID 0000.0001) //          Total. Y spins =              0
(PID.TID 0000.0001) //            Avg. Y spins =       0.00E+00
(PID.TID 0000.0001) // o Tile number: 000003
(PID.TID 0000.0001) //         No. X exchanges =              0
(PID.TID 0000.0001) //            Max. X spins =              0
(PID.TID 0000.0001) //            Min. X spins =     1000000000
(PID.TID 0000.0001) //          Total. X spins =              0
(PID.TID 0000.0001) //            Avg. X spins =       0.00E+00
(PID.TID 0000.0001) //         No. Y exchanges =              0
(PID.TID 0000.0001) //            Max. Y spins =              0
(PID.TID 0000.0001) //            Min. Y spins =     1000000000
(PID.TID 0000.0001) //          Total. Y spins =              0
(PID.TID 0000.0001) //            Avg. Y spins =       0.00E+00
(PID.TID 0000.0001) // o Tile number: 000004
(PID.TID 0000.0001) //         No. X exchanges =              0
(PID.TID 0000.0001) //            Max. X spins =              0
(PID.TID 0000.0001) //            Min. X spins =     1000000000
(PID.TID 0000.0001) //          Total. X spins =              0
(PID.TID 0000.0001) //            Avg. X spins =       0.00E+00
(PID.TID 0000.0001) //         No. Y exchanges =              0
(PID.TID 0000.0001) //            Max. Y spins =              0
(PID.TID 0000.0001) //            Min. Y spins =     1000000000
(PID.TID 0000.0001) //          Total. Y spins =              0
(PID.TID 0000.0001) //            Avg. Y spins =       0.00E+00
(PID.TID 0000.0001) // o Thread number: 000001
(PID.TID 0000.0001) //            No. barriers =         111402
(PID.TID 0000.0001) //      Max. barrier spins =              1
(PID.TID 0000.0001) //      Min. barrier spins =              1
(PID.TID 0000.0001) //     Total barrier spins =         111402
(PID.TID 0000.0001) //      Avg. barrier spins =       1.00E+00
