(PID.TID 0000.0001) 
(PID.TID 0000.0001) // ======================================================
(PID.TID 0000.0001) //                      MITgcm UV
(PID.TID 0000.0001) //                      =========
(PID.TID 0000.0001) // ======================================================
(PID.TID 0000.0001) // execution environment starting up...
(PID.TID 0000.0001) 
(PID.TID 0000.0001) // MITgcmUV version:  checkpoint64b
(PID.TID 0000.0001) // Build user:        jmc
(PID.TID 0000.0001) // Build host:        baudelaire
(PID.TID 0000.0001) // Build date:        Wed Dec 26 12:09:25 EST 2012
(PID.TID 0000.0001) 
(PID.TID 0000.0001) // =======================================================
(PID.TID 0000.0001) // Execution Environment parameter file "eedata"
(PID.TID 0000.0001) // =======================================================
(PID.TID 0000.0001) ># Example "eedata" file
(PID.TID 0000.0001) ># Lines beginning "#" are comments
(PID.TID 0000.0001) ># nTx - No. threads per process in X
(PID.TID 0000.0001) ># nTy - No. threads per process in Y
(PID.TID 0000.0001) > &EEPARMS
(PID.TID 0000.0001) > nTx=1,
(PID.TID 0000.0001) > nTy=1,
(PID.TID 0000.0001) > /
(PID.TID 0000.0001) ># Note: Some systems use & as the namelist terminator (as shown here).
(PID.TID 0000.0001) >#       Other systems use a / character.
(PID.TID 0000.0001) 
(PID.TID 0000.0001) // =======================================================
(PID.TID 0000.0001) // Computational Grid Specification ( see files "SIZE.h" )
(PID.TID 0000.0001) //                                  ( and "eedata"       )
(PID.TID 0000.0001) // =======================================================
(PID.TID 0000.0001)      nPx =    1 ; /* No. processes in X */
(PID.TID 0000.0001)      nPy =    1 ; /* No. processes in Y */
(PID.TID 0000.0001)      nSx =    2 ; /* No. tiles in X per process */
(PID.TID 0000.0001)      nSy =    4 ; /* No. tiles in Y per process */
(PID.TID 0000.0001)      sNx =   50 ; /* Tile size in X */
(PID.TID 0000.0001)      sNy =   25 ; /* Tile size in Y */
(PID.TID 0000.0001)      OLx =    3 ; /* Tile overlap distance in X */
(PID.TID 0000.0001)      OLy =    3 ; /* Tile overlap distance in Y */
(PID.TID 0000.0001)      nTx =    1 ; /* No. threads in X per process */
(PID.TID 0000.0001)      nTy =    1 ; /* No. threads in Y per process */
(PID.TID 0000.0001)       Nr =    1 ; /* No. levels in the vertical   */
(PID.TID 0000.0001)       Nx =  100 ; /* Total domain size in X ( = nPx*nSx*sNx ) */
(PID.TID 0000.0001)       Ny =  100 ; /* Total domain size in Y ( = nPy*nSy*sNy ) */
(PID.TID 0000.0001)   nTiles =    8 ; /* Total no. tiles per process ( = nSx*nSy ) */
(PID.TID 0000.0001)   nProcs =    1 ; /* Total no. processes ( = nPx*nPy ) */
(PID.TID 0000.0001) nThreads =    1 ; /* Total no. threads per process ( = nTx*nTy ) */
(PID.TID 0000.0001) usingMPI =    F ; /* Flag used to control whether MPI is in use */
(PID.TID 0000.0001)                   /*  note: To execute a program with MPI calls */
(PID.TID 0000.0001)                   /*  it must be launched appropriately e.g     */
(PID.TID 0000.0001)                   /*  "mpirun -np 64 ......"                    */
(PID.TID 0000.0001) useCoupler=    F ;/* Flag used to control communications with   */
(PID.TID 0000.0001)                   /*  other model components, through a coupler */
(PID.TID 0000.0001) debugMode =    F ; /* print debug msg. (sequence of S/R calls)  */
(PID.TID 0000.0001) printMapIncludesZeros=    F ; /* print zeros in Std.Output maps */
(PID.TID 0000.0001) maxLengthPrt1D=   65 /* maxLength of 1D array printed to StdOut */
(PID.TID 0000.0001) 
(PID.TID 0000.0001) // ======================================================
(PID.TID 0000.0001) // Mapping of tiles to threads
(PID.TID 0000.0001) // ======================================================
(PID.TID 0000.0001) // -o- Thread   1, tiles (   1:   2,   1:   4)
(PID.TID 0000.0001) 
(PID.TID 0000.0001) // ======================================================
(PID.TID 0000.0001) // Tile <-> Tile connectvity table
(PID.TID 0000.0001) // ======================================================
(PID.TID 0000.0001) // Tile number: 000001 (process no. = 000000)
(PID.TID 0000.0001) //        WEST: Tile = 000002, Process = 000000, Comm = put
(PID.TID 0000.0001) //                bi = 000002, bj = 000001
(PID.TID 0000.0001) //        EAST: Tile = 000002, Process = 000000, Comm = put
(PID.TID 0000.0001) //                bi = 000002, bj = 000001
(PID.TID 0000.0001) //       SOUTH: Tile = 000007, Process = 000000, Comm = put
(PID.TID 0000.0001) //                bi = 000001, bj = 000004
(PID.TID 0000.0001) //       NORTH: Tile = 000003, Process = 000000, Comm = put
(PID.TID 0000.0001) //                bi = 000001, bj = 000002
(PID.TID 0000.0001) // Tile number: 000002 (process no. = 000000)
(PID.TID 0000.0001) //        WEST: Tile = 000001, Process = 000000, Comm = put
(PID.TID 0000.0001) //                bi = 000001, bj = 000001
(PID.TID 0000.0001) //        EAST: Tile = 000001, Process = 000000, Comm = put
(PID.TID 0000.0001) //                bi = 000001, bj = 000001
(PID.TID 0000.0001) //       SOUTH: Tile = 000008, Process = 000000, Comm = put
(PID.TID 0000.0001) //                bi = 000002, bj = 000004
(PID.TID 0000.0001) //       NORTH: Tile = 000004, Process = 000000, Comm = put
(PID.TID 0000.0001) //                bi = 000002, bj = 000002
(PID.TID 0000.0001) // Tile number: 000003 (process no. = 000000)
(PID.TID 0000.0001) //        WEST: Tile = 000004, Process = 000000, Comm = put
(PID.TID 0000.0001) //                bi = 000002, bj = 000002
(PID.TID 0000.0001) //        EAST: Tile = 000004, Process = 000000, Comm = put
(PID.TID 0000.0001) //                bi = 000002, bj = 000002
(PID.TID 0000.0001) //       SOUTH: Tile = 000001, Process = 000000, Comm = put
(PID.TID 0000.0001) //                bi = 000001, bj = 000001
(PID.TID 0000.0001) //       NORTH: Tile = 000005, Process = 000000, Comm = put
(PID.TID 0000.0001) //                bi = 000001, bj = 000003
(PID.TID 0000.0001) // Tile number: 000004 (process no. = 000000)
(PID.TID 0000.0001) //        WEST: Tile = 000003, Process = 000000, Comm = put
(PID.TID 0000.0001) //                bi = 000001, bj = 000002
(PID.TID 0000.0001) //        EAST: Tile = 000003, Process = 000000, Comm = put
(PID.TID 0000.0001) //                bi = 000001, bj = 000002
(PID.TID 0000.0001) //       SOUTH: Tile = 000002, Process = 000000, Comm = put
(PID.TID 0000.0001) //                bi = 000002, bj = 000001
(PID.TID 0000.0001) //       NORTH: Tile = 000006, Process = 000000, Comm = put
(PID.TID 0000.0001) //                bi = 000002, bj = 000003
(PID.TID 0000.0001) // Tile number: 000005 (process no. = 000000)
(PID.TID 0000.0001) //        WEST: Tile = 000006, Process = 000000, Comm = put
(PID.TID 0000.0001) //                bi = 000002, bj = 000003
(PID.TID 0000.0001) //        EAST: Tile = 000006, Process = 000000, Comm = put
(PID.TID 0000.0001) //                bi = 000002, bj = 000003
(PID.TID 0000.0001) //       SOUTH: Tile = 000003, Process = 000000, Comm = put
(PID.TID 0000.0001) //                bi = 000001, bj = 000002
(PID.TID 0000.0001) //       NORTH: Tile = 000007, Process = 000000, Comm = put
(PID.TID 0000.0001) //                bi = 000001, bj = 000004
(PID.TID 0000.0001) // Tile number: 000006 (process no. = 000000)
(PID.TID 0000.0001) //        WEST: Tile = 000005, Process = 000000, Comm = put
(PID.TID 0000.0001) //                bi = 000001, bj = 000003
(PID.TID 0000.0001) //        EAST: Tile = 000005, Process = 000000, Comm = put
(PID.TID 0000.0001) //                bi = 000001, bj = 000003
(PID.TID 0000.0001) //       SOUTH: Tile = 000004, Process = 000000, Comm = put
(PID.TID 0000.0001) //                bi = 000002, bj = 000002
(PID.TID 0000.0001) //       NORTH: Tile = 000008, Process = 000000, Comm = put
(PID.TID 0000.0001) //                bi = 000002, bj = 000004
(PID.TID 0000.0001) // Tile number: 000007 (process no. = 000000)
(PID.TID 0000.0001) //        WEST: Tile = 000008, Process = 000000, Comm = put
(PID.TID 0000.0001) //                bi = 000002, bj = 000004
(PID.TID 0000.0001) //        EAST: Tile = 000008, Process = 000000, Comm = put
(PID.TID 0000.0001) //                bi = 000002, bj = 000004
(PID.TID 0000.0001) //       SOUTH: Tile = 000005, Process = 000000, Comm = put
(PID.TID 0000.0001) //                bi = 000001, bj = 000003
(PID.TID 0000.0001) //       NORTH: Tile = 000001, Process = 000000, Comm = put
(PID.TID 0000.0001) //                bi = 000001, bj = 000001
(PID.TID 0000.0001) // Tile number: 000008 (process no. = 000000)
(PID.TID 0000.0001) //        WEST: Tile = 000007, Process = 000000, Comm = put
(PID.TID 0000.0001) //                bi = 000001, bj = 000004
(PID.TID 0000.0001) //        EAST: Tile = 000007, Process = 000000, Comm = put
(PID.TID 0000.0001) //                bi = 000001, bj = 000004
(PID.TID 0000.0001) //       SOUTH: Tile = 000006, Process = 000000, Comm = put
(PID.TID 0000.0001) //                bi = 000002, bj = 000003
(PID.TID 0000.0001) //       NORTH: Tile = 000002, Process = 000000, Comm = put
(PID.TID 0000.0001) //                bi = 000002, bj = 000001
(PID.TID 0000.0001) 
(PID.TID 0000.0001)  INI_PARMS: opening model parameter file "data"
(PID.TID 0000.0001)  OPEN_COPY_DATA_FILE: opening file data
(PID.TID 0000.0001) // =======================================================
(PID.TID 0000.0001) // Parameter file "data"
(PID.TID 0000.0001) // =======================================================
(PID.TID 0000.0001) ># ====================
(PID.TID 0000.0001) ># | Model parameters |
(PID.TID 0000.0001) ># ====================
(PID.TID 0000.0001) >#
(PID.TID 0000.0001) ># Continuous equation parameters
(PID.TID 0000.0001) > &PARM01
(PID.TID 0000.0001) > tRef=20.,
(PID.TID 0000.0001) > sRef=35.,
(PID.TID 0000.0001) > viscAh=500.,
(PID.TID 0000.0001) > diffKhT=200.,
(PID.TID 0000.0001) > diffKhS=200.,
(PID.TID 0000.0001) > tempAdvScheme=33,
(PID.TID 0000.0001) > staggerTimeStep=.TRUE.,
(PID.TID 0000.0001) > eosType='LINEAR',
(PID.TID 0000.0001) > readBinaryPrec=64,
(PID.TID 0000.0001) >#debugLevel=5,
(PID.TID 0000.0001) > /
(PID.TID 0000.0001) >
(PID.TID 0000.0001) ># Elliptic solver parameters
(PID.TID 0000.0001) > &PARM02
(PID.TID 0000.0001) > /
(PID.TID 0000.0001) >
(PID.TID 0000.0001) ># Time stepping parameters
(PID.TID 0000.0001) > &PARM03
(PID.TID 0000.0001) > nIter0  = 0,
(PID.TID 0000.0001) > deltaT  = 1200.,
(PID.TID 0000.0001) > endTime = 28800.,
(PID.TID 0000.0001) > dumpFreq= 14400.,
(PID.TID 0000.0001) > monitorFreq=3600.,
(PID.TID 0000.0001) > /
(PID.TID 0000.0001) >
(PID.TID 0000.0001) ># Grid parameters
(PID.TID 0000.0001) > &PARM04
(PID.TID 0000.0001) > usingSphericalPolarGrid=.TRUE.,
(PID.TID 0000.0001) > ygOrigin=30.,
(PID.TID 0000.0001) > dxSpacing=0.25,
(PID.TID 0000.0001) > dySpacing=0.25,
(PID.TID 0000.0001) > delR=1000.,
(PID.TID 0000.0001) > /
(PID.TID 0000.0001) >
(PID.TID 0000.0001) ># Input datasets
(PID.TID 0000.0001) > &PARM05
(PID.TID 0000.0001) > bathyFile='topog.box',
(PID.TID 0000.0001) > /
(PID.TID 0000.0001) 
(PID.TID 0000.0001)  INI_PARMS ; starts to read PARM01
(PID.TID 0000.0001)  INI_PARMS ; read PARM01 : OK
(PID.TID 0000.0001) S/R INI_PARMS: No request for barotropic solver
(PID.TID 0000.0001) S/R INI_PARMS: => Use implicitFreeSurface as default
(PID.TID 0000.0001)  INI_PARMS ; starts to read PARM02
(PID.TID 0000.0001)  INI_PARMS ; read PARM02 : OK
(PID.TID 0000.0001)  INI_PARMS ; starts to read PARM03
(PID.TID 0000.0001)  INI_PARMS ; read PARM03 : OK
(PID.TID 0000.0001)  INI_PARMS ; starts to read PARM04
(PID.TID 0000.0001)  INI_PARMS ; read PARM04 : OK
(PID.TID 0000.0001)  INI_PARMS ; starts to read PARM05
(PID.TID 0000.0001)  INI_PARMS ; read PARM05 : OK
(PID.TID 0000.0001)  INI_PARMS: finished reading file "data"
(PID.TID 0000.0001)  PACKAGES_BOOT: opening data.pkg
(PID.TID 0000.0001)  OPEN_COPY_DATA_FILE: opening file data.pkg
(PID.TID 0000.0001) // =======================================================
(PID.TID 0000.0001) // Parameter file "data.pkg"
(PID.TID 0000.0001) // =======================================================
(PID.TID 0000.0001) ># Packages
(PID.TID 0000.0001) > &PACKAGES
(PID.TID 0000.0001) >  useCheapAML=.TRUE.,
(PID.TID 0000.0001) >  useDIAGNOSTICS=.TRUE.,
(PID.TID 0000.0001) >  useMNC=.TRUE.,
(PID.TID 0000.0001) > /
(PID.TID 0000.0001) 
(PID.TID 0000.0001)  PACKAGES_BOOT: finished reading data.pkg
(PID.TID 0000.0001)  MNC_READPARMS: opening file 'data.mnc'
(PID.TID 0000.0001)  OPEN_COPY_DATA_FILE: opening file data.mnc
(PID.TID 0000.0001) // =======================================================
(PID.TID 0000.0001) // Parameter file "data.mnc"
(PID.TID 0000.0001) // =======================================================
(PID.TID 0000.0001) ># Example "data.mnc" file
(PID.TID 0000.0001) ># Lines beginning "#" are comments
(PID.TID 0000.0001) > &MNC_01
(PID.TID 0000.0001) ># mnc_echo_gvtypes=.FALSE.,
(PID.TID 0000.0001) >  mnc_use_indir=.TRUE.,
(PID.TID 0000.0001) >  mnc_indir_str='start/',
(PID.TID 0000.0001) >  mnc_use_outdir=.TRUE.,
(PID.TID 0000.0001) >  mnc_outdir_str='mnc_test_',
(PID.TID 0000.0001) >  mnc_outdir_date=.FALSE.,
(PID.TID 0000.0001) >  monitor_mnc=.FALSE.,
(PID.TID 0000.0001) ># snapshot_mnc=.FALSE.,
(PID.TID 0000.0001) ># timeave_mnc=.FALSE.,
(PID.TID 0000.0001) >  pickup_write_mnc=.FALSE.,
(PID.TID 0000.0001) >  pickup_read_mnc=.FALSE.,
(PID.TID 0000.0001) > /
(PID.TID 0000.0001) 
(PID.TID 0000.0001)  MNC_READPARMS: finished reading data.mnc
(PID.TID 0000.0001)  BULKF_READPARMS: opening data.cheapaml
(PID.TID 0000.0001)  OPEN_COPY_DATA_FILE: opening file data.cheapaml
(PID.TID 0000.0001) // =======================================================
(PID.TID 0000.0001) // Parameter file "data.cheapaml"
(PID.TID 0000.0001) // =======================================================
(PID.TID 0000.0001) ># Package CheapAML parameters
(PID.TID 0000.0001) >#--------------------
(PID.TID 0000.0001) > &CHEAPAML_CONST
(PID.TID 0000.0001) >  cheapaml_ntim = 5,
(PID.TID 0000.0001) >  cheapaml_mask_width=5,
(PID.TID 0000.0001) >  cheapaml_h = 1000.,
(PID.TID 0000.0001) > /
(PID.TID 0000.0001) >
(PID.TID 0000.0001) > &CHEAPAML_PARM01
(PID.TID 0000.0001) > /
(PID.TID 0000.0001) >
(PID.TID 0000.0001) > &CHEAPAML_PARM02
(PID.TID 0000.0001) >  useFreshWaterFlux=.TRUE.,
(PID.TID 0000.0001) >  useFluxLimit=.TRUE.,
(PID.TID 0000.0001) >  FluxFormula='COARE3'
(PID.TID 0000.0001) > /
(PID.TID 0000.0001) 
(PID.TID 0000.0001)  CHEAPAML_READPARMS: read CHEAPAML_CONST
(PID.TID 0000.0001)  CHEAPAML_READPARMS: read CHEAPAML_PARM01
(PID.TID 0000.0001)  CHEAPAML_READPARMS: read CHEAPAML_PARM02
 Caml: ntim     =           5
 Caml: mask_w   =           5
 Caml: h        =   1000.0000000000000     
 Caml: kdiff    =   10000.000000000000     
 Caml: tau      =  0.10000000000000001     
 Caml: tau2     =   0.0000000000000000     
 Caml: rhoa     =   1.3000000000000000     
 Caml: cpair    =   1004.0000000000000     
 Caml: stefan   =  5.66999999999999982E-008
 Caml: useFreshwaterFlux  = T
 Caml: useFluxLimit       = T
 Caml: useStressOption    = F
 Caml: useCheapTracer     = F
 Caml: usetimevarblh      = F
 Caml: useclouds          = F
 Caml: useDlongwave       = F
(PID.TID 0000.0001)  DIAGNOSTICS_READPARMS: opening data.diagnostics
(PID.TID 0000.0001)  OPEN_COPY_DATA_FILE: opening file data.diagnostics
(PID.TID 0000.0001) // =======================================================
(PID.TID 0000.0001) // Parameter file "data.diagnostics"
(PID.TID 0000.0001) // =======================================================
(PID.TID 0000.0001) ># Diagnostic Package Choices
(PID.TID 0000.0001) >#--------------------
(PID.TID 0000.0001) >#  dumpAtLast (logical): always write output at the end of simulation (default=F)
(PID.TID 0000.0001) >#  diag_mnc   (logical): write to NetCDF files (default=useMNC)
(PID.TID 0000.0001) >#--for each output-stream:
(PID.TID 0000.0001) >#  fileName(n) : prefix of the output file name (max 80c long) for outp.stream n
(PID.TID 0000.0001) >#  frequency(n):< 0 : write snap-shot output every |frequency| seconds
(PID.TID 0000.0001) >#               > 0 : write time-average output every frequency seconds
(PID.TID 0000.0001) >#  timePhase(n)     : write at time = timePhase + multiple of |frequency|
(PID.TID 0000.0001) >#    averagingFreq  : frequency (in s) for periodic averaging interval
(PID.TID 0000.0001) >#    averagingPhase : phase     (in s) for periodic averaging interval
(PID.TID 0000.0001) >#    repeatCycle    : number of averaging intervals in 1 cycle
(PID.TID 0000.0001) >#  levels(:,n) : list of levels to write to file (Notes: declared as REAL)
(PID.TID 0000.0001) >#                when this entry is missing, select all common levels of this list
(PID.TID 0000.0001) >#  fields(:,n) : list of selected diagnostics fields (8.c) in outp.stream n
(PID.TID 0000.0001) >#                (see "available_diagnostics.log" file for the full list of diags)
(PID.TID 0000.0001) >#  missing_value(n) : missing value for real-type fields in output file "n"
(PID.TID 0000.0001) >#  fileFlags(n)     : specific code (8c string) for output file "n"
(PID.TID 0000.0001) >#--------------------
(PID.TID 0000.0001) > &DIAGNOSTICS_LIST
(PID.TID 0000.0001) ># diag_mnc     = .FALSE.,
(PID.TID 0000.0001) ># dumpAtLast   = .TRUE.,
(PID.TID 0000.0001) >#--
(PID.TID 0000.0001) >  fields(1:6,1)  = 'CH_TAIR ','CH_QAIR ','CH_QNET ','CH_EmP  ','CH_Uwind','CH_Vwind',
(PID.TID 0000.0001) >   fileName(1) = 'cheapAML',
(PID.TID 0000.0001) >  frequency(1) = 14400.,
(PID.TID 0000.0001) > /
(PID.TID 0000.0001) >
(PID.TID 0000.0001) >#--------------------
(PID.TID 0000.0001) ># Parameter for Diagnostics of per level statistics:
(PID.TID 0000.0001) >#--------------------
(PID.TID 0000.0001) >#  diagSt_mnc (logical): write stat-diags to NetCDF files (default=diag_mnc)
(PID.TID 0000.0001) >#  diagSt_regMaskFile : file containing the region-mask to read-in
(PID.TID 0000.0001) >#  nSetRegMskFile   : number of region-mask sets within the region-mask file
(PID.TID 0000.0001) >#  set_regMask(i)   : region-mask set-index that identifies the region "i"
(PID.TID 0000.0001) >#  val_regMask(i)   : region "i" identifier value in the region mask
(PID.TID 0000.0001) >#--for each output-stream:
(PID.TID 0000.0001) >#  stat_fName(n) : prefix of the output file name (max 80c long) for outp.stream n
(PID.TID 0000.0001) >#  stat_freq(n):< 0 : write snap-shot output every |stat_freq| seconds
(PID.TID 0000.0001) >#               > 0 : write time-average output every stat_freq seconds
(PID.TID 0000.0001) >#  stat_phase(n)    : write at time = stat_phase + multiple of |stat_freq|
(PID.TID 0000.0001) >#  stat_region(:,n) : list of "regions" (default: 1 region only=global)
(PID.TID 0000.0001) >#  stat_fields(:,n) : list of selected diagnostics fields (8.c) in outp.stream n
(PID.TID 0000.0001) >#                (see "available_diagnostics.log" file for the full list of diags)
(PID.TID 0000.0001) >#--------------------
(PID.TID 0000.0001) > &DIAG_STATIS_PARMS
(PID.TID 0000.0001) >#---
(PID.TID 0000.0001) >#stat_fields(1:5,1) = 'ETAN    ','UVEL    ','VVEL    ','WVEL    ',
(PID.TID 0000.0001) >#                     'THETA   ',
(PID.TID 0000.0001) ># stat_fName(1) = 'dynStDiag',
(PID.TID 0000.0001) >#  stat_freq(1) = 1800.,
(PID.TID 0000.0001) > /
(PID.TID 0000.0001) 
(PID.TID 0000.0001) S/R DIAGNOSTICS_READPARMS, read namelist "diagnostics_list": start
(PID.TID 0000.0001) S/R DIAGNOSTICS_READPARMS, read namelist "diagnostics_list": OK
(PID.TID 0000.0001) S/R DIAGNOSTICS_READPARMS, read namelist "DIAG_STATIS_PARMS": start
(PID.TID 0000.0001) S/R DIAGNOSTICS_READPARMS, read namelist "DIAG_STATIS_PARMS": OK
(PID.TID 0000.0001)  DIAGNOSTICS_READPARMS: global parameter summary:
(PID.TID 0000.0001)  dumpAtLast = /* always write time-ave diags at the end */
(PID.TID 0000.0001)                   F
(PID.TID 0000.0001)     ;
(PID.TID 0000.0001)  diag_mnc =   /* write NetCDF output files */
(PID.TID 0000.0001)                   T
(PID.TID 0000.0001)     ;
(PID.TID 0000.0001)  useMissingValue = /* put MissingValue where mask = 0 */
(PID.TID 0000.0001)                   F
(PID.TID 0000.0001)     ;
(PID.TID 0000.0001)  diagCG_maxIters = /* max number of iters in diag_cg2d */
(PID.TID 0000.0001)                     150
(PID.TID 0000.0001)     ;
(PID.TID 0000.0001)  diagCG_resTarget = /* residual target for diag_cg2d */
(PID.TID 0000.0001)                 1.000000000000000E-07
(PID.TID 0000.0001)     ;
(PID.TID 0000.0001) -----------------------------------------------------
(PID.TID 0000.0001)  DIAGNOSTICS_READPARMS: active diagnostics summary:
(PID.TID 0000.0001) -----------------------------------------------------
(PID.TID 0000.0001) Creating Output Stream: cheapAML
(PID.TID 0000.0001) Output Frequency:      14400.000000 ; Phase:           0.000000
(PID.TID 0000.0001)  Averaging Freq.:      14400.000000 , Phase:           0.000000 , Cycle:   1
(PID.TID 0000.0001)  missing value:  1.234567000000E+05 ; for integers:   123456789
(PID.TID 0000.0001)  Levels:    will be set later
(PID.TID 0000.0001)  Fields:    CH_TAIR  CH_QAIR  CH_QNET  CH_EmP   CH_Uwind CH_Vwind
(PID.TID 0000.0001) -----------------------------------------------------
(PID.TID 0000.0001)  DIAGNOSTICS_READPARMS: statistics diags. summary:
(PID.TID 0000.0001) -----------------------------------------------------
(PID.TID 0000.0001) 
(PID.TID 0000.0001) SET_PARMS: done
(PID.TID 0000.0001) Enter INI_VERTICAL_GRID: setInterFDr=    T ; setCenterDr=    F
(PID.TID 0000.0001) %MON XC_max                       =   2.4875000000000E+01
(PID.TID 0000.0001) %MON XC_min                       =   1.2500000000000E-01
(PID.TID 0000.0001) %MON XC_mean                      =   1.2500000000000E+01
(PID.TID 0000.0001) %MON XC_sd                        =   7.2165175119305E+00
(PID.TID 0000.0001) %MON XG_max                       =   2.4750000000000E+01
(PID.TID 0000.0001) %MON XG_min                       =   0.0000000000000E+00
(PID.TID 0000.0001) %MON XG_mean                      =   1.2375000000000E+01
(PID.TID 0000.0001) %MON XG_sd                        =   7.2165175119305E+00
(PID.TID 0000.0001) %MON DXC_max                      =   2.4040252850518E+04
(PID.TID 0000.0001) %MON DXC_min                      =   1.5991828426890E+04
(PID.TID 0000.0001) %MON DXC_mean                     =   2.0330001348477E+04
(PID.TID 0000.0001) %MON DXC_sd                       =   2.3583001248505E+03
(PID.TID 0000.0001) %MON DXF_max                      =   2.4040252850518E+04
(PID.TID 0000.0001) %MON DXF_min                      =   1.5991828426890E+04
(PID.TID 0000.0001) %MON DXF_mean                     =   2.0330001348477E+04
(PID.TID 0000.0001) %MON DXF_sd                       =   2.3583001248505E+03
(PID.TID 0000.0001) %MON DXG_max                      =   2.4070629062858E+04
(PID.TID 0000.0001) %MON DXG_min                      =   1.6041385996405E+04
(PID.TID 0000.0001) %MON DXG_mean                     =   2.0370595138284E+04
(PID.TID 0000.0001) %MON DXG_sd                       =   2.3527187837990E+03
(PID.TID 0000.0001) %MON DXV_max                      =   2.4070629062858E+04
(PID.TID 0000.0001) %MON DXV_min                      =   1.6041385996405E+04
(PID.TID 0000.0001) %MON DXV_mean                     =   2.0370595138284E+04
(PID.TID 0000.0001) %MON DXV_sd                       =   2.3527187837990E+03
(PID.TID 0000.0001) %MON YC_max                       =   5.4875000000000E+01
(PID.TID 0000.0001) %MON YC_min                       =   3.0125000000000E+01
(PID.TID 0000.0001) %MON YC_mean                      =   4.2500000000000E+01
(PID.TID 0000.0001) %MON YC_sd                        =   7.2165175119305E+00
(PID.TID 0000.0001) %MON YG_max                       =   5.4750000000000E+01
(PID.TID 0000.0001) %MON YG_min                       =   3.0000000000000E+01
(PID.TID 0000.0001) %MON YG_mean                      =   4.2375000000000E+01
(PID.TID 0000.0001) %MON YG_sd                        =   7.2165175119305E+00
(PID.TID 0000.0001) %MON DYC_max                      =   2.7794368338010E+04
(PID.TID 0000.0001) %MON DYC_min                      =   2.7794368338010E+04
(PID.TID 0000.0001) %MON DYC_mean                     =   2.7794368338010E+04
(PID.TID 0000.0001) %MON DYC_sd                       =   6.6211214289069E-10
(PID.TID 0000.0001) %MON DYF_max                      =   2.7794368338010E+04
(PID.TID 0000.0001) %MON DYF_min                      =   2.7794368338010E+04
(PID.TID 0000.0001) %MON DYF_mean                     =   2.7794368338010E+04
(PID.TID 0000.0001) %MON DYF_sd                       =   6.6211214289069E-10
(PID.TID 0000.0001) %MON DYG_max                      =   2.7794368338010E+04
(PID.TID 0000.0001) %MON DYG_min                      =   2.7794368338010E+04
(PID.TID 0000.0001) %MON DYG_mean                     =   2.7794368338010E+04
(PID.TID 0000.0001) %MON DYG_sd                       =   6.6211214289069E-10
(PID.TID 0000.0001) %MON DYU_max                      =   2.7794368338010E+04
(PID.TID 0000.0001) %MON DYU_min                      =   2.7794368338010E+04
(PID.TID 0000.0001) %MON DYU_mean                     =   2.7794368338010E+04
(PID.TID 0000.0001) %MON DYU_sd                       =   6.6211214289069E-10
(PID.TID 0000.0001) %MON RA_max                       =   6.6818311261326E+08
(PID.TID 0000.0001) %MON RA_min                       =   4.4448241709847E+08
(PID.TID 0000.0001) %MON RA_mean                      =   5.6505909754457E+08
(PID.TID 0000.0001) %MON RA_sd                        =   6.5547410324550E+07
(PID.TID 0000.0001) %MON RAW_max                      =   6.6818311261326E+08
(PID.TID 0000.0001) %MON RAW_min                      =   4.4448241709847E+08
(PID.TID 0000.0001) %MON RAW_mean                     =   5.6505909754457E+08
(PID.TID 0000.0001) %MON RAW_sd                       =   6.5547410324550E+07
(PID.TID 0000.0001) %MON RAS_max                      =   6.6902739957799E+08
(PID.TID 0000.0001) %MON RAS_min                      =   4.4585983734684E+08
(PID.TID 0000.0001) %MON RAS_mean                     =   5.6618737539566E+08
(PID.TID 0000.0001) %MON RAS_sd                       =   6.5392280598603E+07
(PID.TID 0000.0001) %MON RAZ_max                      =   6.6902739957799E+08
(PID.TID 0000.0001) %MON RAZ_min                      =   4.4585983734684E+08
(PID.TID 0000.0001) %MON RAZ_mean                     =   5.6618737539566E+08
(PID.TID 0000.0001) %MON RAZ_sd                       =   6.5392280598603E+07
(PID.TID 0000.0001) %MON AngleCS_max                  =   1.0000000000000E+00
(PID.TID 0000.0001) %MON AngleCS_min                  =   1.0000000000000E+00
(PID.TID 0000.0001) %MON AngleCS_mean                 =   1.0000000000000E+00
(PID.TID 0000.0001) %MON AngleCS_sd                   =   0.0000000000000E+00
(PID.TID 0000.0001) %MON AngleSN_max                  =   0.0000000000000E+00
(PID.TID 0000.0001) %MON AngleSN_min                  =   0.0000000000000E+00
(PID.TID 0000.0001) %MON AngleSN_mean                 =   0.0000000000000E+00
(PID.TID 0000.0001) %MON AngleSN_sd                   =   0.0000000000000E+00
(PID.TID 0000.0001)  MDS_READ_FIELD: opening global file: topog.box
(PID.TID 0000.0001) // =======================================================
(PID.TID 0000.0001) // Field Model R_low (ini_masks_etc)
(PID.TID 0000.0001) // CMIN =         -1.000000000000000E+03
(PID.TID 0000.0001) // CMAX =         -1.000000000000000E+03
(PID.TID 0000.0001) // CINT =          0.000000000000000E+00
(PID.TID 0000.0001) // SYMBOLS (CMIN->CMAX): -abcdefghijklmnopqrstuvwxyz+
(PID.TID 0000.0001) //                  0.0: .
(PID.TID 0000.0001) // RANGE I (Lo:Hi:Step):(    -2:   103:     1)
(PID.TID 0000.0001) // RANGE J (Lo:Hi:Step):(   103:    -2:    -1)
(PID.TID 0000.0001) // RANGE K (Lo:Hi:Step):(   1:   1:   1)
(PID.TID 0000.0001) // =======================================================
(PID.TID 0000.0001) // =======================================================
(PID.TID 0000.0001) // END OF FIELD                                          =
(PID.TID 0000.0001) // =======================================================
(PID.TID 0000.0001) 
(PID.TID 0000.0001) // =======================================================
(PID.TID 0000.0001) // Field Model Ro_surf (ini_masks_etc)
(PID.TID 0000.0001) // CMIN =          1.000000000000000E+32
(PID.TID 0000.0001) // CMAX =         -1.000000000000000E+32
(PID.TID 0000.0001) // CINT =          0.000000000000000E+00
(PID.TID 0000.0001) // SYMBOLS (CMIN->CMAX): -abcdefghijklmnopqrstuvwxyz+
(PID.TID 0000.0001) //                  0.0: .
(PID.TID 0000.0001) // RANGE I (Lo:Hi:Step):(    -2:   103:     1)
(PID.TID 0000.0001) // RANGE J (Lo:Hi:Step):(   103:    -2:    -1)
(PID.TID 0000.0001) // RANGE K (Lo:Hi:Step):(   1:   1:   1)
(PID.TID 0000.0001) // =======================================================
(PID.TID 0000.0001) // =======================================================
(PID.TID 0000.0001) // END OF FIELD                                          =
(PID.TID 0000.0001) // =======================================================
(PID.TID 0000.0001) 
(PID.TID 0000.0001) // =======================================================
(PID.TID 0000.0001) // Field hFacC at iteration          0
(PID.TID 0000.0001) // CMIN =          1.000000000000000E+00
(PID.TID 0000.0001) // CMAX =          1.000000000000000E+00
(PID.TID 0000.0001) // CINT =          0.000000000000000E+00
(PID.TID 0000.0001) // SYMBOLS (CMIN->CMAX): -abcdefghijklmnopqrstuvwxyz+
(PID.TID 0000.0001) //                  0.0: .
(PID.TID 0000.0001) // RANGE I (Lo:Hi:Step):(    -2:   103:     1)
(PID.TID 0000.0001) // RANGE J (Lo:Hi:Step):(   103:    -2:    -1)
(PID.TID 0000.0001) // RANGE K (Lo:Hi:Step):(   1:   1:   1)
(PID.TID 0000.0001) // =======================================================
(PID.TID 0000.0001) // =======================================================
(PID.TID 0000.0001) // END OF FIELD                                          =
(PID.TID 0000.0001) // =======================================================
(PID.TID 0000.0001) 
(PID.TID 0000.0001) // =======================================================
(PID.TID 0000.0001) // Field hFacW at iteration          0
(PID.TID 0000.0001) // CMIN =          1.000000000000000E+00
(PID.TID 0000.0001) // CMAX =          1.000000000000000E+00
(PID.TID 0000.0001) // CINT =          0.000000000000000E+00
(PID.TID 0000.0001) // SYMBOLS (CMIN->CMAX): -abcdefghijklmnopqrstuvwxyz+
(PID.TID 0000.0001) //                  0.0: .
(PID.TID 0000.0001) // RANGE I (Lo:Hi:Step):(    -2:   103:     1)
(PID.TID 0000.0001) // RANGE J (Lo:Hi:Step):(   103:    -2:    -1)
(PID.TID 0000.0001) // RANGE K (Lo:Hi:Step):(   1:   1:   1)
(PID.TID 0000.0001) // =======================================================
(PID.TID 0000.0001) // =======================================================
(PID.TID 0000.0001) // END OF FIELD                                          =
(PID.TID 0000.0001) // =======================================================
(PID.TID 0000.0001) 
(PID.TID 0000.0001) // =======================================================
(PID.TID 0000.0001) // Field hFacS at iteration          0
(PID.TID 0000.0001) // CMIN =          1.000000000000000E+00
(PID.TID 0000.0001) // CMAX =          1.000000000000000E+00
(PID.TID 0000.0001) // CINT =          0.000000000000000E+00
(PID.TID 0000.0001) // SYMBOLS (CMIN->CMAX): -abcdefghijklmnopqrstuvwxyz+
(PID.TID 0000.0001) //                  0.0: .
(PID.TID 0000.0001) // RANGE I (Lo:Hi:Step):(    -2:   103:     1)
(PID.TID 0000.0001) // RANGE J (Lo:Hi:Step):(   103:    -2:    -1)
(PID.TID 0000.0001) // RANGE K (Lo:Hi:Step):(   1:   1:   1)
(PID.TID 0000.0001) // =======================================================
(PID.TID 0000.0001) // =======================================================
(PID.TID 0000.0001) // END OF FIELD                                          =
(PID.TID 0000.0001) // =======================================================
(PID.TID 0000.0001) 
(PID.TID 0000.0001) GAD_INIT_FIXED: GAD_OlMinSize=  2  0  1
(PID.TID 0000.0001) 
(PID.TID 0000.0001) // ===================================
(PID.TID 0000.0001) // GAD parameters :
(PID.TID 0000.0001) // ===================================
(PID.TID 0000.0001) tempAdvScheme =   /* Temp. Horiz.Advection scheme selector */
(PID.TID 0000.0001)                      33
(PID.TID 0000.0001)     ;
(PID.TID 0000.0001) tempVertAdvScheme =   /* Temp. Vert. Advection scheme selector */
(PID.TID 0000.0001)                      33
(PID.TID 0000.0001)     ;
(PID.TID 0000.0001) tempMultiDimAdvec =   /* use Muti-Dim Advec method for Temp */
(PID.TID 0000.0001)                   T
(PID.TID 0000.0001)     ;
(PID.TID 0000.0001) tempSOM_Advection = /* use 2nd Order Moment Advection for Temp */
(PID.TID 0000.0001)                   F
(PID.TID 0000.0001)     ;
(PID.TID 0000.0001) AdamsBashforthGt = /* apply Adams-Bashforth extrapolation on Gt */
(PID.TID 0000.0001)                   F
(PID.TID 0000.0001)     ;
(PID.TID 0000.0001) AdamsBashforth_T = /* apply Adams-Bashforth extrapolation on Temp */
(PID.TID 0000.0001)                   F
(PID.TID 0000.0001)     ;
(PID.TID 0000.0001) saltAdvScheme =   /* Salt. Horiz.advection scheme selector */
(PID.TID 0000.0001)                       2
(PID.TID 0000.0001)     ;
(PID.TID 0000.0001) saltVertAdvScheme =   /* Salt. Vert. Advection scheme selector */
(PID.TID 0000.0001)                       2
(PID.TID 0000.0001)     ;
(PID.TID 0000.0001) saltMultiDimAdvec =   /* use Muti-Dim Advec method for Salt */
(PID.TID 0000.0001)                   F
(PID.TID 0000.0001)     ;
(PID.TID 0000.0001) saltSOM_Advection = /* use 2nd Order Moment Advection for Salt */
(PID.TID 0000.0001)                   F
(PID.TID 0000.0001)     ;
(PID.TID 0000.0001) AdamsBashforthGs = /* apply Adams-Bashforth extrapolation on Gs */
(PID.TID 0000.0001)                   T
(PID.TID 0000.0001)     ;
(PID.TID 0000.0001) AdamsBashforth_S = /* apply Adams-Bashforth extrapolation on Salt */
(PID.TID 0000.0001)                   F
(PID.TID 0000.0001)     ;
(PID.TID 0000.0001) // ===================================
(PID.TID 0000.0001) ------------------------------------------------------------
(PID.TID 0000.0001) DIAGNOSTICS_SET_LEVELS: done
(PID.TID 0000.0001)  Total Nb of available Diagnostics: ndiagt=   191
(PID.TID 0000.0001)  write list of available Diagnostics to file: available_diagnostics.log
(PID.TID 0000.0001) SETDIAG: Allocate  1 x  1 Levels for Diagnostic #   183 CH_TAIR
(PID.TID 0000.0001) SETDIAG: Allocate  1 x  1 Levels for Diagnostic #   185 CH_QAIR
(PID.TID 0000.0001) SETDIAG: Allocate  1 x  1 Levels for Diagnostic #   184 CH_QNET
(PID.TID 0000.0001) SETDIAG: Allocate  1 x  1 Levels for Diagnostic #   186 CH_EmP
(PID.TID 0000.0001) SETDIAG: Allocate  1 x  1 Levels for Diagnostic #   188 CH_Uwind
(PID.TID 0000.0001) SETDIAG: Allocate  1 x  1 Levels for Diagnostic #   189 CH_Vwind
(PID.TID 0000.0001)   space allocated for all diagnostics:       6 levels
(PID.TID 0000.0001)   set mate pointer for diag #   188  CH_Uwind , Parms: UU      L1 , mate:   189
(PID.TID 0000.0001)   set mate pointer for diag #   189  CH_Vwind , Parms: VV      L1 , mate:   188
(PID.TID 0000.0001) DIAGNOSTICS_SET_POINTERS: Set levels for Outp.Stream: cheapAML
(PID.TID 0000.0001)  Levels:       1.
(PID.TID 0000.0001) DIAGNOSTICS_SET_POINTERS: done
(PID.TID 0000.0001) ------------------------------------------------------------
(PID.TID 0000.0001) DIAGSTATS_SET_REGIONS: define no region
(PID.TID 0000.0001) ------------------------------------------------------------
(PID.TID 0000.0001)   space allocated for all stats-diags:       0 levels
(PID.TID 0000.0001) DIAGSTATS_SET_POINTERS: done
(PID.TID 0000.0001) ------------------------------------------------------------
(PID.TID 0000.0001) Empty tile bi,bj=     1     4
(PID.TID 0000.0001) 
(PID.TID 0000.0001) %MON fCori_max                    =   1.1928437363062E-04
(PID.TID 0000.0001) %MON fCori_min                    =   7.3196612432522E-05
(PID.TID 0000.0001) %MON fCori_mean                   =   9.7750068978508E-05
(PID.TID 0000.0001) %MON fCori_sd                     =   1.3496836407130E-05
(PID.TID 0000.0001) %MON fCoriG_max                   =   1.1910102178692E-04
(PID.TID 0000.0001) %MON fCoriG_min                   =   7.2921235169904E-05
(PID.TID 0000.0001) %MON fCoriG_mean                  =   9.7517106737915E-05
(PID.TID 0000.0001) %MON fCoriG_sd                    =   1.3523629015123E-05
(PID.TID 0000.0001) %MON fCoriCos_max                 =   1.2614389435569E-04
(PID.TID 0000.0001) %MON fCoriCos_min                 =   8.3912242029208E-05
(PID.TID 0000.0001) %MON fCoriCos_mean                =   1.0667548125635E-04
(PID.TID 0000.0001) %MON fCoriCos_sd                  =   1.2374460603968E-05
(PID.TID 0000.0001) INI_CG2D: CG2D normalisation factor =  5.8247769686780204E-04
(PID.TID 0000.0001) 
(PID.TID 0000.0001) // =======================================================
(PID.TID 0000.0001) // Model configuration
(PID.TID 0000.0001) // =======================================================
(PID.TID 0000.0001) //
(PID.TID 0000.0001) // "Physical" paramters ( PARM01 in namelist )
(PID.TID 0000.0001) //
(PID.TID 0000.0001) buoyancyRelation = /* Type of relation to get Buoyancy */
(PID.TID 0000.0001)               'OCEANIC'
(PID.TID 0000.0001)     ;
(PID.TID 0000.0001) fluidIsAir   =  /* fluid major constituent is Air */
(PID.TID 0000.0001)                   F
(PID.TID 0000.0001)     ;
(PID.TID 0000.0001) fluidIsWater =  /* fluid major constituent is Water */
(PID.TID 0000.0001)                   T
(PID.TID 0000.0001)     ;
(PID.TID 0000.0001) usingPCoords =  /* use p (or p*) vertical coordinate */
(PID.TID 0000.0001)                   F
(PID.TID 0000.0001)     ;
(PID.TID 0000.0001) usingZCoords =  /* use z (or z*) vertical coordinate */
(PID.TID 0000.0001)                   T
(PID.TID 0000.0001)     ;
(PID.TID 0000.0001) tRef =   /* Reference temperature profile ( oC or K ) */
(PID.TID 0000.0001)                 2.000000000000000E+01       /* K =  1 */
(PID.TID 0000.0001)     ;
(PID.TID 0000.0001) sRef =   /* Reference salinity profile ( psu ) */
(PID.TID 0000.0001)                 3.500000000000000E+01       /* K =  1 */
(PID.TID 0000.0001)     ;
(PID.TID 0000.0001) viscAh  =   /* Lateral eddy viscosity ( m^2/s ) */
(PID.TID 0000.0001)                 5.000000000000000E+02
(PID.TID 0000.0001)     ;
(PID.TID 0000.0001) viscAhMax = /* Maximum lateral eddy viscosity ( m^2/s ) */
(PID.TID 0000.0001)                 1.000000000000000E+21
(PID.TID 0000.0001)     ;
(PID.TID 0000.0001) viscAhGrid = /* Grid dependent lateral eddy viscosity ( non-dim. ) */
(PID.TID 0000.0001)                 0.000000000000000E+00
(PID.TID 0000.0001)     ;
(PID.TID 0000.0001) useFullLeith = /* Use Full Form of Leith Viscosity on/off flag*/
(PID.TID 0000.0001)                   F
(PID.TID 0000.0001)     ;
(PID.TID 0000.0001) useStrainTensionVisc= /* Use StrainTension Form of Viscous Operator flag*/
(PID.TID 0000.0001)                   F
(PID.TID 0000.0001)     ;
(PID.TID 0000.0001) useAreaViscLength = /* Use area for visc length instead of geom. mean*/
(PID.TID 0000.0001)                   F
(PID.TID 0000.0001)     ;
(PID.TID 0000.0001) viscC2leith = /* Leith harmonic visc. factor (on grad(vort),non-dim.) */
(PID.TID 0000.0001)                 0.000000000000000E+00
(PID.TID 0000.0001)     ;
(PID.TID 0000.0001) viscC2leithD = /* Leith harmonic viscosity factor (on grad(div),non-dim.)*/
(PID.TID 0000.0001)                 0.000000000000000E+00
(PID.TID 0000.0001)     ;
(PID.TID 0000.0001) viscC2smag = /* Smagorinsky harmonic viscosity factor (non-dim.) */
(PID.TID 0000.0001)                 0.000000000000000E+00
(PID.TID 0000.0001)     ;
(PID.TID 0000.0001) viscA4  =   /* Lateral biharmonic viscosity ( m^4/s ) */
(PID.TID 0000.0001)                 0.000000000000000E+00
(PID.TID 0000.0001)     ;
(PID.TID 0000.0001) viscA4Max = /* Maximum biharmonic viscosity ( m^2/s ) */
(PID.TID 0000.0001)                 1.000000000000000E+21
(PID.TID 0000.0001)     ;
(PID.TID 0000.0001) viscA4Grid = /* Grid dependent biharmonic viscosity ( non-dim. ) */
(PID.TID 0000.0001)                 0.000000000000000E+00
(PID.TID 0000.0001)     ;
(PID.TID 0000.0001) viscC4leith = /* Leith biharm viscosity factor (on grad(vort), non-dim.)*/
(PID.TID 0000.0001)                 0.000000000000000E+00
(PID.TID 0000.0001)     ;
(PID.TID 0000.0001) viscC4leithD = /* Leith biharm viscosity factor (on grad(div), non-dim.) */
(PID.TID 0000.0001)                 0.000000000000000E+00
(PID.TID 0000.0001)     ;
(PID.TID 0000.0001) viscC4Smag = /* Smagorinsky biharm viscosity factor (non-dim) */
(PID.TID 0000.0001)                 0.000000000000000E+00
(PID.TID 0000.0001)     ;
(PID.TID 0000.0001) no_slip_sides =  /* Viscous BCs: No-slip sides */
(PID.TID 0000.0001)                   T
(PID.TID 0000.0001)     ;
(PID.TID 0000.0001) sideDragFactor = /* side-drag scaling factor (non-dim) */
(PID.TID 0000.0001)                 2.000000000000000E+00
(PID.TID 0000.0001)     ;
(PID.TID 0000.0001) viscArNr = /* vertical profile of vertical viscosity ( m^2/s )*/
(PID.TID 0000.0001)                 0.000000000000000E+00       /* K =  1 */
(PID.TID 0000.0001)     ;
(PID.TID 0000.0001) no_slip_bottom =  /* Viscous BCs: No-slip bottom */
(PID.TID 0000.0001)                   T
(PID.TID 0000.0001)     ;
(PID.TID 0000.0001) bottomDragLinear = /* linear bottom-drag coefficient ( m/s ) */
(PID.TID 0000.0001)                 0.000000000000000E+00
(PID.TID 0000.0001)     ;
(PID.TID 0000.0001) bottomDragQuadratic = /* quadratic bottom-drag coefficient (-) */
(PID.TID 0000.0001)                 0.000000000000000E+00
(PID.TID 0000.0001)     ;
(PID.TID 0000.0001) diffKhT =   /* Laplacian diffusion of heat laterally ( m^2/s ) */
(PID.TID 0000.0001)                 2.000000000000000E+02
(PID.TID 0000.0001)     ;
(PID.TID 0000.0001) diffK4T =   /* Biharmonic diffusion of heat laterally ( m^4/s ) */
(PID.TID 0000.0001)                 0.000000000000000E+00
(PID.TID 0000.0001)     ;
(PID.TID 0000.0001) diffKhS =   /* Laplacian diffusion of salt laterally ( m^2/s ) */
(PID.TID 0000.0001)                 2.000000000000000E+02
(PID.TID 0000.0001)     ;
(PID.TID 0000.0001) diffK4S =   /* Biharmonic diffusion of salt laterally ( m^4/s ) */
(PID.TID 0000.0001)                 0.000000000000000E+00
(PID.TID 0000.0001)     ;
(PID.TID 0000.0001) diffKrNrT = /* vertical profile of vertical diffusion of Temp ( m^2/s )*/
(PID.TID 0000.0001)                 0.000000000000000E+00       /* K =  1 */
(PID.TID 0000.0001)     ;
(PID.TID 0000.0001) diffKrNrS = /* vertical profile of vertical diffusion of Salt ( m^2/s )*/
(PID.TID 0000.0001)                 0.000000000000000E+00       /* K =  1 */
(PID.TID 0000.0001)     ;
(PID.TID 0000.0001) diffKrBL79surf = /* Surface diffusion for Bryan and Lewis 79 ( m^2/s ) */
(PID.TID 0000.0001)                 0.000000000000000E+00
(PID.TID 0000.0001)     ;
(PID.TID 0000.0001) diffKrBL79deep = /* Deep diffusion for Bryan and Lewis 1979 ( m^2/s ) */
(PID.TID 0000.0001)                 0.000000000000000E+00
(PID.TID 0000.0001)     ;
(PID.TID 0000.0001) diffKrBL79scl = /* Depth scale for Bryan and Lewis 1979 ( m ) */
(PID.TID 0000.0001)                 2.000000000000000E+02
(PID.TID 0000.0001)     ;
(PID.TID 0000.0001) diffKrBL79Ho = /* Turning depth for Bryan and Lewis 1979 ( m ) */
(PID.TID 0000.0001)                -2.000000000000000E+03
(PID.TID 0000.0001)     ;
(PID.TID 0000.0001) ivdc_kappa = /* Implicit Vertical Diffusivity for Convection ( m^2/s) */
(PID.TID 0000.0001)                 0.000000000000000E+00
(PID.TID 0000.0001)     ;
(PID.TID 0000.0001) hMixCriteria=  /* Criteria for mixed-layer diagnostic */
(PID.TID 0000.0001)                -8.000000000000000E-01
(PID.TID 0000.0001)     ;
(PID.TID 0000.0001) dRhoSmall =  /* Parameter for mixed-layer diagnostic */
(PID.TID 0000.0001)                 1.000000000000000E-06
(PID.TID 0000.0001)     ;
(PID.TID 0000.0001) hMixSmooth=  /* Smoothing parameter for mixed-layer diagnostic */
(PID.TID 0000.0001)                 0.000000000000000E+00
(PID.TID 0000.0001)     ;
(PID.TID 0000.0001) eosType =  /* Type of Equation of State */
(PID.TID 0000.0001)               'LINEAR'
(PID.TID 0000.0001)     ;
(PID.TID 0000.0001) tAlpha = /* Linear EOS thermal expansion coefficient ( 1/oC ) */
(PID.TID 0000.0001)                 2.000000000000000E-04
(PID.TID 0000.0001)     ;
(PID.TID 0000.0001) sBeta  = /* Linear EOS haline contraction coefficient ( 1/psu ) */
(PID.TID 0000.0001)                 7.400000000000000E-04
(PID.TID 0000.0001)     ;
(PID.TID 0000.0001) rhoNil    = /* Reference density for Linear EOS ( kg/m^3 ) */
(PID.TID 0000.0001)                 9.998000000000000E+02
(PID.TID 0000.0001)     ;
(PID.TID 0000.0001) celsius2K = /* 0 degree Celsius converted to Kelvin ( K ) */
(PID.TID 0000.0001)                 2.731600000000000E+02
(PID.TID 0000.0001)     ;
(PID.TID 0000.0001) rhoConst  = /* Reference density (Boussinesq)  ( kg/m^3 ) */
(PID.TID 0000.0001)                 9.998000000000000E+02
(PID.TID 0000.0001)     ;
(PID.TID 0000.0001) rhoFacC = /* normalized Reference density @ cell-Center (-) */
(PID.TID 0000.0001)                 1.000000000000000E+00       /* K =  1 */
(PID.TID 0000.0001)     ;
(PID.TID 0000.0001) rhoFacF = /* normalized Reference density @ W-Interface (-) */
(PID.TID 0000.0001)     2 @  1.000000000000000E+00              /* K =  1:  2 */
(PID.TID 0000.0001)     ;
(PID.TID 0000.0001) rhoConstFresh = /* Fresh-water reference density ( kg/m^3 ) */
(PID.TID 0000.0001)                 9.998000000000000E+02
(PID.TID 0000.0001)     ;
(PID.TID 0000.0001) gravity =   /* Gravitational acceleration ( m/s^2 ) */
(PID.TID 0000.0001)                 9.810000000000000E+00
(PID.TID 0000.0001)     ;
(PID.TID 0000.0001) gBaro =   /* Barotropic gravity ( m/s^2 ) */
(PID.TID 0000.0001)                 9.810000000000000E+00
(PID.TID 0000.0001)     ;
(PID.TID 0000.0001) rotationPeriod =   /* Rotation Period ( s ) */
(PID.TID 0000.0001)                 8.616400000000000E+04
(PID.TID 0000.0001)     ;
(PID.TID 0000.0001) omega =   /* Angular velocity ( rad/s ) */
(PID.TID 0000.0001)                 7.292123516990375E-05
(PID.TID 0000.0001)     ;
(PID.TID 0000.0001) f0 =   /* Reference coriolis parameter ( 1/s ) */
(PID.TID 0000.0001)                 1.000000000000000E-04
(PID.TID 0000.0001)     ;
(PID.TID 0000.0001) beta =   /* Beta ( 1/(m.s) ) */
(PID.TID 0000.0001)                 9.999999999999999E-12
(PID.TID 0000.0001)     ;
(PID.TID 0000.0001) fPrime =   /* Second coriolis parameter ( 1/s ) */
(PID.TID 0000.0001)                 0.000000000000000E+00
(PID.TID 0000.0001)     ;
(PID.TID 0000.0001) rigidLid =   /* Rigid lid on/off flag */
(PID.TID 0000.0001)                   F
(PID.TID 0000.0001)     ;
(PID.TID 0000.0001) implicitFreeSurface =   /* Implicit free surface on/off flag */
(PID.TID 0000.0001)                   T
(PID.TID 0000.0001)     ;
(PID.TID 0000.0001) freeSurfFac =   /* Implicit free surface factor */
(PID.TID 0000.0001)                 1.000000000000000E+00
(PID.TID 0000.0001)     ;
(PID.TID 0000.0001) implicSurfPress =  /* Surface Pressure implicit factor (0-1)*/
(PID.TID 0000.0001)                 1.000000000000000E+00
(PID.TID 0000.0001)     ;
(PID.TID 0000.0001) implicDiv2Dflow =  /* Barot. Flow Div. implicit factor (0-1)*/
(PID.TID 0000.0001)                 1.000000000000000E+00
(PID.TID 0000.0001)     ;
(PID.TID 0000.0001) uniformLin_PhiSurf = /* use uniform Bo_surf on/off flag*/
(PID.TID 0000.0001)                   T
(PID.TID 0000.0001)     ;
(PID.TID 0000.0001) uniformFreeSurfLev = /* free-surface level-index is uniform */
(PID.TID 0000.0001)                   T
(PID.TID 0000.0001)     ;
(PID.TID 0000.0001) hFacMin =   /* minimum partial cell factor (hFac) */
(PID.TID 0000.0001)                 1.000000000000000E+00
(PID.TID 0000.0001)     ;
(PID.TID 0000.0001) hFacMinDr = /* minimum partial cell thickness ( m) */
(PID.TID 0000.0001)                 1.000000000000000E+00
(PID.TID 0000.0001)     ;
(PID.TID 0000.0001) exactConserv =  /* Exact Volume Conservation on/off flag*/
(PID.TID 0000.0001)                   F
(PID.TID 0000.0001)     ;
(PID.TID 0000.0001) linFSConserveTr = /* Tracer correction for Lin Free Surface on/off flag*/
(PID.TID 0000.0001)                   F
(PID.TID 0000.0001)     ;
(PID.TID 0000.0001) nonlinFreeSurf = /* Non-linear Free Surf. options (-1,0,1,2,3)*/
(PID.TID 0000.0001)                       0
(PID.TID 0000.0001)      -1,0= Off ; 1,2,3= On, 2=+rescale gU,gV, 3=+update cg2d solv.
(PID.TID 0000.0001)     ;
(PID.TID 0000.0001) hFacInf =   /* lower threshold for hFac (nonlinFreeSurf only)*/
(PID.TID 0000.0001)                 2.000000000000000E-01
(PID.TID 0000.0001)     ;
(PID.TID 0000.0001) hFacSup =   /* upper threshold for hFac (nonlinFreeSurf only)*/
(PID.TID 0000.0001)                 2.000000000000000E+00
(PID.TID 0000.0001)     ;
(PID.TID 0000.0001) select_rStar = /* r* Vertical coord. options (=0 r coord.; >0 uses r*)*/
(PID.TID 0000.0001)                       0
(PID.TID 0000.0001)     ;
(PID.TID 0000.0001) useRealFreshWaterFlux = /* Real Fresh Water Flux on/off flag*/
(PID.TID 0000.0001)                   F
(PID.TID 0000.0001)     ;
(PID.TID 0000.0001) temp_EvPrRn = /* Temp. of Evap/Prec/R (UNSET=use local T)(oC)*/
(PID.TID 0000.0001)                 1.234567000000000E+05
(PID.TID 0000.0001)     ;
(PID.TID 0000.0001) salt_EvPrRn = /* Salin. of Evap/Prec/R (UNSET=use local S)(psu)*/
(PID.TID 0000.0001)                 0.000000000000000E+00
(PID.TID 0000.0001)     ;
(PID.TID 0000.0001) selectAddFluid = /* option for mass source/sink of fluid (=0: off) */
(PID.TID 0000.0001)                       0
(PID.TID 0000.0001)     ;
(PID.TID 0000.0001) temp_addMass = /* Temp. of addMass array (UNSET=use local T)(oC)*/
(PID.TID 0000.0001)                 1.234567000000000E+05
(PID.TID 0000.0001)     ;
(PID.TID 0000.0001) salt_addMass = /* Salin. of addMass array (UNSET=use local S)(psu)*/
(PID.TID 0000.0001)                 0.000000000000000E+00
(PID.TID 0000.0001)     ;
(PID.TID 0000.0001) convertFW2Salt = /* convert F.W. Flux to Salt Flux (-1=use local S)(psu)*/
(PID.TID 0000.0001)                 3.500000000000000E+01
(PID.TID 0000.0001)     ;
(PID.TID 0000.0001) use3Dsolver = /* use 3-D pressure solver on/off flag */
(PID.TID 0000.0001)                   F
(PID.TID 0000.0001)     ;
(PID.TID 0000.0001) nonHydrostatic =  /* Non-Hydrostatic on/off flag */
(PID.TID 0000.0001)                   F
(PID.TID 0000.0001)     ;
(PID.TID 0000.0001) nh_Am2 = /* Non-Hydrostatic terms scaling factor */
(PID.TID 0000.0001)                 1.000000000000000E+00
(PID.TID 0000.0001)     ;
(PID.TID 0000.0001) implicitNHPress = /* Non-Hyd Pressure implicit factor (0-1)*/
(PID.TID 0000.0001)                 1.000000000000000E+00
(PID.TID 0000.0001)     ;
(PID.TID 0000.0001) selectNHfreeSurf = /* Non-Hyd (free-)Surface option */
(PID.TID 0000.0001)                       0
(PID.TID 0000.0001)     ;
(PID.TID 0000.0001) quasiHydrostatic = /* Quasi-Hydrostatic on/off flag */
(PID.TID 0000.0001)                   F
(PID.TID 0000.0001)     ;
(PID.TID 0000.0001) calc_wVelocity = /* vertical velocity calculation on/off flag */
(PID.TID 0000.0001)                   T
(PID.TID 0000.0001)     ;
(PID.TID 0000.0001) momStepping =  /* Momentum equation on/off flag */
(PID.TID 0000.0001)                   T
(PID.TID 0000.0001)     ;
(PID.TID 0000.0001) vectorInvariantMomentum= /* Vector-Invariant Momentum on/off */
(PID.TID 0000.0001)                   F
(PID.TID 0000.0001)     ;
(PID.TID 0000.0001) momAdvection =  /* Momentum advection on/off flag */
(PID.TID 0000.0001)                   T
(PID.TID 0000.0001)     ;
(PID.TID 0000.0001) momViscosity =  /* Momentum viscosity on/off flag */
(PID.TID 0000.0001)                   T
(PID.TID 0000.0001)     ;
(PID.TID 0000.0001) momImplVertAdv= /* Momentum implicit vert. advection on/off*/
(PID.TID 0000.0001)                   F
(PID.TID 0000.0001)     ;
(PID.TID 0000.0001) implicitViscosity = /* Implicit viscosity on/off flag */
(PID.TID 0000.0001)                   F
(PID.TID 0000.0001)     ;
(PID.TID 0000.0001) metricTerms =  /* metric-Terms on/off flag */
(PID.TID 0000.0001)                   T
(PID.TID 0000.0001)     ;
(PID.TID 0000.0001) useNHMTerms = /* Non-Hydrostatic Metric-Terms on/off */
(PID.TID 0000.0001)                   F
(PID.TID 0000.0001)     ;
(PID.TID 0000.0001) selectCoriMap = /* Coriolis Map options (0,1,2,3)*/
(PID.TID 0000.0001)                       2
(PID.TID 0000.0001)     0= f-Plane ; 1= Beta-Plane ; 2= Spherical ; 3= read from file
(PID.TID 0000.0001)     ;
(PID.TID 0000.0001) use3dCoriolis = /* 3-D Coriolis on/off flag */
(PID.TID 0000.0001)                   F
(PID.TID 0000.0001)     ;
(PID.TID 0000.0001) useCoriolis =  /* Coriolis on/off flag */
(PID.TID 0000.0001)                   T
(PID.TID 0000.0001)     ;
(PID.TID 0000.0001) useCDscheme =  /* CD scheme on/off flag */
(PID.TID 0000.0001)                   F
(PID.TID 0000.0001)     ;
(PID.TID 0000.0001) useEnergyConservingCoriolis= /* Flx-Form Coriolis scheme flag */
(PID.TID 0000.0001)                   F
(PID.TID 0000.0001)     ;
(PID.TID 0000.0001) useJamartWetPoints= /* Coriolis WetPoints method flag */
(PID.TID 0000.0001)                   F
(PID.TID 0000.0001)     ;
(PID.TID 0000.0001) useJamartMomAdv= /* V.I Non-linear terms Jamart flag */
(PID.TID 0000.0001)                   F
(PID.TID 0000.0001)     ;
(PID.TID 0000.0001) useAbsVorticity= /* V.I Works with f+zeta in Coriolis */
(PID.TID 0000.0001)                   F
(PID.TID 0000.0001)     ;
(PID.TID 0000.0001) selectVortScheme= /* V.I Scheme selector for Vorticity-Term */
(PID.TID 0000.0001)               123456789
(PID.TID 0000.0001)    = 0 : enstrophy (Shallow-Water Eq.) conserving scheme by Sadourny, JAS 75
(PID.TID 0000.0001)    = 1 : same as 0 with modified hFac
(PID.TID 0000.0001)    = 2 : energy conserving scheme (used by Sadourny in JAS 75 paper)
(PID.TID 0000.0001)    = 3 : energy (general) and enstrophy (2D, nonDiv.) conserving scheme
(PID.TID 0000.0001)          from Sadourny (Burridge & Haseler, ECMWF Rep.4, 1977)
(PID.TID 0000.0001)     ;
(PID.TID 0000.0001) upwindVorticity= /* V.I Upwind bias vorticity flag */
(PID.TID 0000.0001)                   F
(PID.TID 0000.0001)     ;
(PID.TID 0000.0001) highOrderVorticity= /* V.I High order vort. advect. flag */
(PID.TID 0000.0001)                   F
(PID.TID 0000.0001)     ;
(PID.TID 0000.0001) upwindShear= /* V.I Upwind vertical Shear advection flag */
(PID.TID 0000.0001)                   F
(PID.TID 0000.0001)     ;
(PID.TID 0000.0001) selectKEscheme= /* V.I Kinetic Energy scheme selector */
(PID.TID 0000.0001)                       0
(PID.TID 0000.0001)     ;
(PID.TID 0000.0001) momForcing =  /* Momentum forcing on/off flag */
(PID.TID 0000.0001)                   T
(PID.TID 0000.0001)     ;
(PID.TID 0000.0001) momPressureForcing =  /* Momentum pressure term on/off flag */
(PID.TID 0000.0001)                   T
(PID.TID 0000.0001)     ;
(PID.TID 0000.0001) implicitIntGravWave= /* Implicit Internal Gravity Wave flag */
(PID.TID 0000.0001)                   F
(PID.TID 0000.0001)     ;
(PID.TID 0000.0001) staggerTimeStep =    /* Stagger time stepping on/off flag */
(PID.TID 0000.0001)                   T
(PID.TID 0000.0001)     ;
(PID.TID 0000.0001) doResetHFactors = /* reset thickness factors @ each time-step */
(PID.TID 0000.0001)                   F
(PID.TID 0000.0001)     ;
(PID.TID 0000.0001) multiDimAdvection =  /* enable/disable Multi-Dim Advection */
(PID.TID 0000.0001)                   T
(PID.TID 0000.0001)     ;
(PID.TID 0000.0001) useMultiDimAdvec =   /* Multi-Dim Advection is/is-not used */
(PID.TID 0000.0001)                   T
(PID.TID 0000.0001)     ;
(PID.TID 0000.0001) implicitDiffusion = /* Implicit Diffusion on/off flag */
(PID.TID 0000.0001)                   F
(PID.TID 0000.0001)     ;
(PID.TID 0000.0001) tempStepping =  /* Temperature equation on/off flag */
(PID.TID 0000.0001)                   T
(PID.TID 0000.0001)     ;
(PID.TID 0000.0001) tempAdvection = /* Temperature advection on/off flag */
(PID.TID 0000.0001)                   T
(PID.TID 0000.0001)     ;
(PID.TID 0000.0001) tempImplVertAdv = /* Temp. implicit vert. advection on/off */
(PID.TID 0000.0001)                   F
(PID.TID 0000.0001)     ;
(PID.TID 0000.0001) tempForcing  =  /* Temperature forcing on/off flag */
(PID.TID 0000.0001)                   T
(PID.TID 0000.0001)     ;
(PID.TID 0000.0001) doThetaClimRelax = /* apply SST relaxation on/off flag */
(PID.TID 0000.0001)                   F
(PID.TID 0000.0001)     ;
(PID.TID 0000.0001) tempIsActiveTr = /* Temp. is a dynamically Active Tracer */
(PID.TID 0000.0001)                   T
(PID.TID 0000.0001)     ;
(PID.TID 0000.0001) saltStepping =  /* Salinity equation on/off flag */
(PID.TID 0000.0001)                   T
(PID.TID 0000.0001)     ;
(PID.TID 0000.0001) saltAdvection = /* Salinity advection on/off flag */
(PID.TID 0000.0001)                   T
(PID.TID 0000.0001)     ;
(PID.TID 0000.0001) saltImplVertAdv = /* Sali. implicit vert. advection on/off */
(PID.TID 0000.0001)                   F
(PID.TID 0000.0001)     ;
(PID.TID 0000.0001) saltForcing  =  /* Salinity forcing on/off flag */
(PID.TID 0000.0001)                   T
(PID.TID 0000.0001)     ;
(PID.TID 0000.0001) doSaltClimRelax = /* apply SSS relaxation on/off flag */
(PID.TID 0000.0001)                   F
(PID.TID 0000.0001)     ;
(PID.TID 0000.0001) saltIsActiveTr = /* Salt  is a dynamically Active Tracer */
(PID.TID 0000.0001)                   T
(PID.TID 0000.0001)     ;
(PID.TID 0000.0001)  readBinaryPrec = /* Precision used for reading binary files */
(PID.TID 0000.0001)                      64
(PID.TID 0000.0001)     ;
(PID.TID 0000.0001) writeBinaryPrec = /* Precision used for writing binary files */
(PID.TID 0000.0001)                      32
(PID.TID 0000.0001)     ;
(PID.TID 0000.0001)  globalFiles = /* write "global" (=not per tile) files */
(PID.TID 0000.0001)                   F
(PID.TID 0000.0001)     ;
(PID.TID 0000.0001)  useSingleCpuIO = /* only master MPI process does I/O */
(PID.TID 0000.0001)                   F
(PID.TID 0000.0001)     ;
(PID.TID 0000.0001) /* debLev[*]  : level of debug & auxiliary message printing */
(PID.TID 0000.0001) debLevZero =  0 ; /* level of disabled aux. msg printing */
(PID.TID 0000.0001)    debLevA =  1 ; /* level of minimum  aux. msg printing */
(PID.TID 0000.0001)    debLevB =  2 ; /* level of low aux. print (report read-file opening)*/
(PID.TID 0000.0001)    debLevC =  3 ; /* level of moderate debug prt (most pkgs debug msg) */
(PID.TID 0000.0001)    debLevD =  4 ; /* level of enhanced debug prt (add DEBUG_STATS prt) */
(PID.TID 0000.0001)    debLevE =  5 ; /* level of extensive debug printing */
(PID.TID 0000.0001) debugLevel =  /* select debug printing level */
(PID.TID 0000.0001)                       2
(PID.TID 0000.0001)     ;
(PID.TID 0000.0001) //
(PID.TID 0000.0001) // Elliptic solver(s) paramters ( PARM02 in namelist )
(PID.TID 0000.0001) //
(PID.TID 0000.0001) cg2dMaxIters =   /* Upper limit on 2d con. grad iterations  */
(PID.TID 0000.0001)                     150
(PID.TID 0000.0001)     ;
(PID.TID 0000.0001) cg2dChkResFreq =   /* 2d con. grad convergence test frequency */
(PID.TID 0000.0001)                       1
(PID.TID 0000.0001)     ;
(PID.TID 0000.0001) cg2dUseMinResSol= /* use cg2d last-iter(=0) / min-resid.(=1) solution */
(PID.TID 0000.0001)                       0
(PID.TID 0000.0001)     ;
(PID.TID 0000.0001) cg2dTargetResidual =   /* 2d con. grad target residual  */
(PID.TID 0000.0001)                 1.000000000000000E-07
(PID.TID 0000.0001)     ;
(PID.TID 0000.0001) cg2dTargetResWunit =   /* CG2d target residual [W units] */
(PID.TID 0000.0001)                -1.000000000000000E+00
(PID.TID 0000.0001)     ;
(PID.TID 0000.0001) cg2dPreCondFreq =   /* Freq. for updating cg2d preconditioner */
(PID.TID 0000.0001)                       1
(PID.TID 0000.0001)     ;
(PID.TID 0000.0001) useSRCGSolver =  /* use single reduction CG solver(s) */
(PID.TID 0000.0001)                   F
(PID.TID 0000.0001)     ;
(PID.TID 0000.0001) printResidualFreq = /* Freq. for printing CG residual */
(PID.TID 0000.0001)                       0
(PID.TID 0000.0001)     ;
(PID.TID 0000.0001) //
(PID.TID 0000.0001) // Time stepping paramters ( PARM03 in namelist )
(PID.TID 0000.0001) //
(PID.TID 0000.0001) deltaTMom =   /* Momentum equation timestep ( s ) */
(PID.TID 0000.0001)                 1.200000000000000E+03
(PID.TID 0000.0001)     ;
(PID.TID 0000.0001) deltaTFreeSurf = /* FreeSurface equation timestep ( s ) */
(PID.TID 0000.0001)                 1.200000000000000E+03
(PID.TID 0000.0001)     ;
(PID.TID 0000.0001) dTtracerLev =  /* Tracer equation timestep ( s ) */
(PID.TID 0000.0001)                 1.200000000000000E+03       /* K =  1 */
(PID.TID 0000.0001)     ;
(PID.TID 0000.0001) deltaTClock  =   /* Model clock timestep ( s ) */
(PID.TID 0000.0001)                 1.200000000000000E+03
(PID.TID 0000.0001)     ;
(PID.TID 0000.0001) cAdjFreq =   /* Convective adjustment interval ( s ) */
(PID.TID 0000.0001)                 0.000000000000000E+00
(PID.TID 0000.0001)     ;
(PID.TID 0000.0001) momForcingOutAB = /* =1: take Momentum Forcing out of Adams-Bash. stepping */
(PID.TID 0000.0001)                       0
(PID.TID 0000.0001)     ;
(PID.TID 0000.0001) tracForcingOutAB = /* =1: take T,S,pTr Forcing out of Adams-Bash. stepping */
(PID.TID 0000.0001)                       0
(PID.TID 0000.0001)     ;
(PID.TID 0000.0001) momDissip_In_AB = /* put Dissipation Tendency in Adams-Bash. stepping */
(PID.TID 0000.0001)                   T
(PID.TID 0000.0001)     ;
(PID.TID 0000.0001) doAB_onGtGs = /* apply AB on Tendencies (rather than on T,S)*/
(PID.TID 0000.0001)                   T
(PID.TID 0000.0001)     ;
(PID.TID 0000.0001) abEps =   /* Adams-Bashforth-2 stabilizing weight */
(PID.TID 0000.0001)                 1.000000000000000E-02
(PID.TID 0000.0001)     ;
(PID.TID 0000.0001) pickupStrictlyMatch= /* stop if pickup do not strictly match */
(PID.TID 0000.0001)                   T
(PID.TID 0000.0001)     ;
(PID.TID 0000.0001) nIter0   =   /* Run starting timestep number */
(PID.TID 0000.0001)                       0
(PID.TID 0000.0001)     ;
(PID.TID 0000.0001) nTimeSteps = /* Number of timesteps */
(PID.TID 0000.0001)                      24
(PID.TID 0000.0001)     ;
(PID.TID 0000.0001) nEndIter =   /* Run ending timestep number */
(PID.TID 0000.0001)                      24
(PID.TID 0000.0001)     ;
(PID.TID 0000.0001) baseTime =   /* Model base time ( s ) */
(PID.TID 0000.0001)                 0.000000000000000E+00
(PID.TID 0000.0001)     ;
(PID.TID 0000.0001) startTime =  /* Run start time ( s ) */
(PID.TID 0000.0001)                 0.000000000000000E+00
(PID.TID 0000.0001)     ;
(PID.TID 0000.0001) endTime  =   /* Integration ending time ( s ) */
(PID.TID 0000.0001)                 2.880000000000000E+04
(PID.TID 0000.0001)     ;
(PID.TID 0000.0001) pChkPtFreq = /* Permanent restart/pickup file interval ( s ) */
(PID.TID 0000.0001)                 0.000000000000000E+00
(PID.TID 0000.0001)     ;
(PID.TID 0000.0001) chkPtFreq  = /* Rolling restart/pickup file interval ( s ) */
(PID.TID 0000.0001)                 0.000000000000000E+00
(PID.TID 0000.0001)     ;
(PID.TID 0000.0001) pickup_write_mdsio =   /* Model IO flag. */
(PID.TID 0000.0001)                   T
(PID.TID 0000.0001)     ;
(PID.TID 0000.0001) pickup_read_mdsio =   /* Model IO flag. */
(PID.TID 0000.0001)                   T
(PID.TID 0000.0001)     ;
(PID.TID 0000.0001) pickup_write_mnc =   /* Model IO flag. */
(PID.TID 0000.0001)                   F
(PID.TID 0000.0001)     ;
(PID.TID 0000.0001) pickup_read_mnc =   /* Model IO flag. */
(PID.TID 0000.0001)                   F
(PID.TID 0000.0001)     ;
(PID.TID 0000.0001) pickup_write_immed =   /* Model IO flag. */
(PID.TID 0000.0001)                   F
(PID.TID 0000.0001)     ;
(PID.TID 0000.0001) writePickupAtEnd =   /* Model IO flag. */
(PID.TID 0000.0001)                   T
(PID.TID 0000.0001)     ;
(PID.TID 0000.0001) dumpFreq =   /* Model state write out interval ( s ). */
(PID.TID 0000.0001)                 1.440000000000000E+04
(PID.TID 0000.0001)     ;
(PID.TID 0000.0001) dumpInitAndLast= /* write out Initial & Last iter. model state */
(PID.TID 0000.0001)                   T
(PID.TID 0000.0001)     ;
(PID.TID 0000.0001) snapshot_mdsio =   /* Model IO flag. */
(PID.TID 0000.0001)                   F
(PID.TID 0000.0001)     ;
(PID.TID 0000.0001) snapshot_mnc =   /* Model IO flag. */
(PID.TID 0000.0001)                   T
(PID.TID 0000.0001)     ;
(PID.TID 0000.0001) monitorFreq =   /* Monitor output interval ( s ). */
(PID.TID 0000.0001)                 3.600000000000000E+03
(PID.TID 0000.0001)     ;
(PID.TID 0000.0001) monitorSelect = /* select group of variables to monitor */
(PID.TID 0000.0001)                       3
(PID.TID 0000.0001)     ;
(PID.TID 0000.0001) monitor_stdio =   /* Model IO flag. */
(PID.TID 0000.0001)                   T
(PID.TID 0000.0001)     ;
(PID.TID 0000.0001) monitor_mnc =   /* Model IO flag. */
(PID.TID 0000.0001)                   F
(PID.TID 0000.0001)     ;
(PID.TID 0000.0001) externForcingPeriod =   /* forcing period (s) */
(PID.TID 0000.0001)                 0.000000000000000E+00
(PID.TID 0000.0001)     ;
(PID.TID 0000.0001) externForcingCycle =   /* period of the cyle (s). */
(PID.TID 0000.0001)                 0.000000000000000E+00
(PID.TID 0000.0001)     ;
(PID.TID 0000.0001) tauThetaClimRelax =   /* relaxation time scale (s) */
(PID.TID 0000.0001)                 0.000000000000000E+00
(PID.TID 0000.0001)     ;
(PID.TID 0000.0001) tauSaltClimRelax =   /* relaxation time scale (s) */
(PID.TID 0000.0001)                 0.000000000000000E+00
(PID.TID 0000.0001)     ;
(PID.TID 0000.0001) latBandClimRelax =   /* max. Lat. where relaxation */
(PID.TID 0000.0001)                 1.800000000000000E+02
(PID.TID 0000.0001)     ;
(PID.TID 0000.0001) //
(PID.TID 0000.0001) // Gridding paramters ( PARM04 in namelist )
(PID.TID 0000.0001) //
(PID.TID 0000.0001) usingCartesianGrid = /* Cartesian coordinates flag ( True/False ) */
(PID.TID 0000.0001)                   F
(PID.TID 0000.0001)     ;
(PID.TID 0000.0001) usingCylindricalGrid = /* Cylindrical coordinates flag ( True/False ) */
(PID.TID 0000.0001)                   F
(PID.TID 0000.0001)     ;
(PID.TID 0000.0001) usingSphericalPolarGrid = /* Spherical coordinates flag ( True/False ) */
(PID.TID 0000.0001)                   T
(PID.TID 0000.0001)     ;
(PID.TID 0000.0001) usingCurvilinearGrid = /* Curvilinear coordinates flag ( True/False ) */
(PID.TID 0000.0001)                   F
(PID.TID 0000.0001)     ;
(PID.TID 0000.0001) selectSigmaCoord = /* Hybrid-Sigma Vert. Coordinate option */
(PID.TID 0000.0001)                       0
(PID.TID 0000.0001)     ;
(PID.TID 0000.0001) Ro_SeaLevel = /* r(1) ( units of r ==  m ) */
(PID.TID 0000.0001)                 0.000000000000000E+00
(PID.TID 0000.0001)     ;
(PID.TID 0000.0001) rSigmaBnd = /* r/sigma transition ( units of r ==  m ) */
(PID.TID 0000.0001)                 1.234567000000000E+05
(PID.TID 0000.0001)     ;
(PID.TID 0000.0001) rkSign =   /* index orientation relative to vertical coordinate */
(PID.TID 0000.0001)                -1.000000000000000E+00
(PID.TID 0000.0001)     ;
(PID.TID 0000.0001) gravitySign = /* gravity orientation relative to vertical coordinate */
(PID.TID 0000.0001)                -1.000000000000000E+00
(PID.TID 0000.0001)     ;
(PID.TID 0000.0001) mass2rUnit = /* convert mass per unit area [kg/m2] to r-units [m] */
(PID.TID 0000.0001)                 1.000200040008002E-03
(PID.TID 0000.0001)     ;
(PID.TID 0000.0001) rUnit2mass = /* convert r-units [m] to mass per unit area [kg/m2] */
(PID.TID 0000.0001)                 9.998000000000000E+02
(PID.TID 0000.0001)     ;
(PID.TID 0000.0001) drC =   /* C spacing ( units of r ) */
(PID.TID 0000.0001)                 5.000000000000000E+02       /* K =  1 */
(PID.TID 0000.0001)     ;
(PID.TID 0000.0001) drF =   /* W spacing ( units of r ) */
(PID.TID 0000.0001)                 1.000000000000000E+03       /* K =  1 */
(PID.TID 0000.0001)     ;
(PID.TID 0000.0001) delX = /* U spacing ( m - cartesian, degrees - spherical ) */
(PID.TID 0000.0001)   100 @  2.500000000000000E-01              /* I =  1:100 */
(PID.TID 0000.0001)     ;
(PID.TID 0000.0001) delY = /* V spacing ( m - cartesian, degrees - spherical ) */
(PID.TID 0000.0001)   100 @  2.500000000000000E-01              /* J =  1:100 */
(PID.TID 0000.0001)     ;
(PID.TID 0000.0001) xgOrigin = /* X-axis origin of West  edge (cartesian: m, lat-lon: deg) */
(PID.TID 0000.0001)                 0.000000000000000E+00
(PID.TID 0000.0001)     ;
(PID.TID 0000.0001) ygOrigin = /* Y-axis origin of South edge (cartesian: m, lat-lon: deg) */
(PID.TID 0000.0001)                 3.000000000000000E+01
(PID.TID 0000.0001)     ;
(PID.TID 0000.0001) rSphere =  /* Radius ( ignored - cartesian, m - spherical ) */
(PID.TID 0000.0001)                 6.370000000000000E+06
(PID.TID 0000.0001)     ;
(PID.TID 0000.0001) deepAtmosphere = /* Deep/Shallow Atmosphere flag (True/False) */
(PID.TID 0000.0001)                   F
(PID.TID 0000.0001)     ;
(PID.TID 0000.0001) xC =  /* xC(:,1,:,1) : P-point X coord ( deg. or m if cartesian) */
(PID.TID 0000.0001)                 1.250000000000000E-01,      /* I =  1 */
(PID.TID 0000.0001)                 3.750000000000000E-01,      /* I =  2 */
(PID.TID 0000.0001)                 6.250000000000000E-01,      /* I =  3 */
(PID.TID 0000.0001)      . . .
(PID.TID 0000.0001)                 5.625000000000000E+00,      /* I = 23 */
(PID.TID 0000.0001)                 5.875000000000000E+00,      /* I = 24 */
(PID.TID 0000.0001)                 6.125000000000000E+00,      /* I = 25 */
(PID.TID 0000.0001)                 6.375000000000000E+00,      /* I = 26 */
(PID.TID 0000.0001)                 6.625000000000000E+00,      /* I = 27 */
(PID.TID 0000.0001)                 6.875000000000000E+00,      /* I = 28 */
(PID.TID 0000.0001)      . . .
(PID.TID 0000.0001)                 1.187500000000000E+01,      /* I = 48 */
(PID.TID 0000.0001)                 1.212500000000000E+01,      /* I = 49 */
(PID.TID 0000.0001)                 1.237500000000000E+01,      /* I = 50 */
(PID.TID 0000.0001)                 1.262500000000000E+01,      /* I = 51 */
(PID.TID 0000.0001)                 1.287500000000000E+01,      /* I = 52 */
(PID.TID 0000.0001)                 1.312500000000000E+01,      /* I = 53 */
(PID.TID 0000.0001)      . . .
(PID.TID 0000.0001)                 1.812500000000000E+01,      /* I = 73 */
(PID.TID 0000.0001)                 1.837500000000000E+01,      /* I = 74 */
(PID.TID 0000.0001)                 1.862500000000000E+01,      /* I = 75 */
(PID.TID 0000.0001)                 1.887500000000000E+01,      /* I = 76 */
(PID.TID 0000.0001)                 1.912500000000000E+01,      /* I = 77 */
(PID.TID 0000.0001)                 1.937500000000000E+01,      /* I = 78 */
(PID.TID 0000.0001)      . . .
(PID.TID 0000.0001)                 2.437500000000000E+01,      /* I = 98 */
(PID.TID 0000.0001)                 2.462500000000000E+01,      /* I = 99 */
(PID.TID 0000.0001)                 2.487500000000000E+01       /* I =100 */
(PID.TID 0000.0001)     ;
(PID.TID 0000.0001) yC =  /* yC(1,:,1,:) : P-point Y coord ( deg. or m if cartesian) */
(PID.TID 0000.0001)                 3.012500000000000E+01,      /* J =  1 */
(PID.TID 0000.0001)                 3.037500000000000E+01,      /* J =  2 */
(PID.TID 0000.0001)                 3.062500000000000E+01,      /* J =  3 */
(PID.TID 0000.0001)      . . .
(PID.TID 0000.0001)                 3.562500000000000E+01,      /* J = 23 */
(PID.TID 0000.0001)                 3.587500000000000E+01,      /* J = 24 */
(PID.TID 0000.0001)                 3.612500000000000E+01,      /* J = 25 */
(PID.TID 0000.0001)                 3.637500000000000E+01,      /* J = 26 */
(PID.TID 0000.0001)                 3.662500000000000E+01,      /* J = 27 */
(PID.TID 0000.0001)                 3.687500000000000E+01,      /* J = 28 */
(PID.TID 0000.0001)      . . .
(PID.TID 0000.0001)                 4.187500000000000E+01,      /* J = 48 */
(PID.TID 0000.0001)                 4.212500000000000E+01,      /* J = 49 */
(PID.TID 0000.0001)                 4.237500000000000E+01,      /* J = 50 */
(PID.TID 0000.0001)                 4.262500000000000E+01,      /* J = 51 */
(PID.TID 0000.0001)                 4.287500000000000E+01,      /* J = 52 */
(PID.TID 0000.0001)                 4.312500000000000E+01,      /* J = 53 */
(PID.TID 0000.0001)      . . .
(PID.TID 0000.0001)                 4.812500000000000E+01,      /* J = 73 */
(PID.TID 0000.0001)                 4.837500000000000E+01,      /* J = 74 */
(PID.TID 0000.0001)                 4.862500000000000E+01,      /* J = 75 */
(PID.TID 0000.0001)                 4.887500000000000E+01,      /* J = 76 */
(PID.TID 0000.0001)                 4.912500000000000E+01,      /* J = 77 */
(PID.TID 0000.0001)                 4.937500000000000E+01,      /* J = 78 */
(PID.TID 0000.0001)      . . .
(PID.TID 0000.0001)                 5.437500000000000E+01,      /* J = 98 */
(PID.TID 0000.0001)                 5.462500000000000E+01,      /* J = 99 */
(PID.TID 0000.0001)                 5.487500000000000E+01       /* J =100 */
(PID.TID 0000.0001)     ;
(PID.TID 0000.0001) rcoord = /* P-point R coordinate (  units of r ) */
(PID.TID 0000.0001)                -5.000000000000000E+02       /* K =  1 */
(PID.TID 0000.0001)     ;
(PID.TID 0000.0001) rF =   /* W-Interf. R coordinate (  units of r ) */
(PID.TID 0000.0001)                 0.000000000000000E+00,      /* K =  1 */
(PID.TID 0000.0001)                -1.000000000000000E+03       /* K =  2 */
(PID.TID 0000.0001)     ;
(PID.TID 0000.0001) deepFacC = /* deep-model grid factor @ cell-Center (-) */
(PID.TID 0000.0001)                 1.000000000000000E+00       /* K =  1 */
(PID.TID 0000.0001)     ;
(PID.TID 0000.0001) deepFacF = /* deep-model grid factor @ W-Interface (-) */
(PID.TID 0000.0001)     2 @  1.000000000000000E+00              /* K =  1:  2 */
(PID.TID 0000.0001)     ;
(PID.TID 0000.0001) rVel2wUnit = /* convert units: rVel -> wSpeed (=1 if z-coord)*/
(PID.TID 0000.0001)     2 @  1.000000000000000E+00              /* K =  1:  2 */
(PID.TID 0000.0001)     ;
(PID.TID 0000.0001) wUnit2rVel = /* convert units: wSpeed -> rVel (=1 if z-coord)*/
(PID.TID 0000.0001)     2 @  1.000000000000000E+00              /* K =  1:  2 */
(PID.TID 0000.0001)     ;
(PID.TID 0000.0001) dBdrRef = /* Vertical grad. of reference buoyancy [(m/s/r)^2] */
(PID.TID 0000.0001)                 0.000000000000000E+00       /* K =  1 */
(PID.TID 0000.0001)     ;
(PID.TID 0000.0001) rotateGrid = /* use rotated grid ( True/False ) */
(PID.TID 0000.0001)                   F
(PID.TID 0000.0001)     ;
(PID.TID 0000.0001) phiEuler = /* Euler angle, rotation about original z-coordinate [rad] */
(PID.TID 0000.0001)                 0.000000000000000E+00
(PID.TID 0000.0001)     ;
(PID.TID 0000.0001) thetaEuler = /* Euler angle, rotation about new x-coordinate [rad] */
(PID.TID 0000.0001)                 0.000000000000000E+00
(PID.TID 0000.0001)     ;
(PID.TID 0000.0001) psiEuler = /* Euler angle, rotation about new z-coordinate [rad] */
(PID.TID 0000.0001)                 0.000000000000000E+00
(PID.TID 0000.0001)     ;
(PID.TID 0000.0001) dxF =  /* dxF(:,1,:,1) ( units: m ) */
(PID.TID 0000.0001)   100 @  2.404025285051817E+04              /* I =  1:100 */
(PID.TID 0000.0001)     ;
(PID.TID 0000.0001) dxF =  /* dxF(1,:,1,:) ( units: m ) */
(PID.TID 0000.0001)                 2.404025285051817E+04,      /* J =  1 */
(PID.TID 0000.0001)                 2.397915730173338E+04,      /* J =  2 */
(PID.TID 0000.0001)                 2.391760522435877E+04,      /* J =  3 */
(PID.TID 0000.0001)      . . .
(PID.TID 0000.0001)                 2.259256015386935E+04,      /* J = 23 */
(PID.TID 0000.0001)                 2.252170485848710E+04,      /* J = 24 */
(PID.TID 0000.0001)                 2.245042078230868E+04,      /* J = 25 */
(PID.TID 0000.0001)                 2.237870928248015E+04,      /* J = 26 */
(PID.TID 0000.0001)                 2.230657172428511E+04,      /* J = 27 */
(PID.TID 0000.0001)                 2.223400948111865E+04,      /* J = 28 */
(PID.TID 0000.0001)      . . .
(PID.TID 0000.0001)                 2.069576649803291E+04,      /* J = 48 */
(PID.TID 0000.0001)                 2.061461720595564E+04,      /* J = 49 */
(PID.TID 0000.0001)                 2.053307544128210E+04,      /* J = 50 */
(PID.TID 0000.0001)                 2.045114275644995E+04,      /* J = 51 */
(PID.TID 0000.0001)                 2.036882071133940E+04,      /* J = 52 */
(PID.TID 0000.0001)                 2.028611087324353E+04,      /* J = 53 */
(PID.TID 0000.0001)      . . .
(PID.TID 0000.0001)                 1.855295556960817E+04,      /* J = 73 */
(PID.TID 0000.0001)                 1.846247692872708E+04,      /* J = 74 */
(PID.TID 0000.0001)                 1.837164678889836E+04,      /* J = 75 */
(PID.TID 0000.0001)                 1.828046687939695E+04,      /* J = 76 */
(PID.TID 0000.0001)                 1.818893893615687E+04,      /* J = 77 */
(PID.TID 0000.0001)                 1.809706470173824E+04,      /* J = 78 */
(PID.TID 0000.0001)      . . .
(PID.TID 0000.0001)                 1.618959965541925E+04,      /* J = 98 */
(PID.TID 0000.0001)                 1.609086721461336E+04,      /* J = 99 */
(PID.TID 0000.0001)                 1.599182842689019E+04       /* J =100 */
(PID.TID 0000.0001)     ;
(PID.TID 0000.0001) dyF =  /* dyF(:,1,:,1) ( units: m ) */
(PID.TID 0000.0001)   100 @  2.779436833800970E+04              /* I =  1:100 */
(PID.TID 0000.0001)     ;
(PID.TID 0000.0001) dyF =  /* dyF(1,:,1,:) ( units: m ) */
(PID.TID 0000.0001)   100 @  2.779436833800970E+04              /* J =  1:100 */
(PID.TID 0000.0001)     ;
(PID.TID 0000.0001) dxG =  /* dxG(:,1,:,1) ( units: m ) */
(PID.TID 0000.0001)   100 @  2.407062906285827E+04              /* I =  1:100 */
(PID.TID 0000.0001)     ;
(PID.TID 0000.0001) dxG =  /* dxG(1,:,1,:) ( units: m ) */
(PID.TID 0000.0001)                 2.407062906285827E+04,      /* J =  1 */
(PID.TID 0000.0001)                 2.400976221510167E+04,      /* J =  2 */
(PID.TID 0000.0001)                 2.394843825608182E+04,      /* J =  3 */
(PID.TID 0000.0001)      . . .
(PID.TID 0000.0001)                 2.262782658688523E+04,      /* J = 23 */
(PID.TID 0000.0001)                 2.255718618828079E+04,      /* J = 24 */
(PID.TID 0000.0001)                 2.248611633336681E+04,      /* J = 25 */
(PID.TID 0000.0001)                 2.241461837521088E+04,      /* J = 26 */
(PID.TID 0000.0001)                 2.234269367503106E+04,      /* J = 27 */
(PID.TID 0000.0001)                 2.227034360216997E+04,      /* J = 28 */
(PID.TID 0000.0001)      . . .
(PID.TID 0000.0001)                 2.073619348375353E+04,      /* J = 48 */
(PID.TID 0000.0001)                 2.065524100780463E+04,      /* J = 49 */
(PID.TID 0000.0001)                 2.057389528584083E+04,      /* J = 50 */
(PID.TID 0000.0001)                 2.049215786656742E+04,      /* J = 51 */
(PID.TID 0000.0001)                 2.041003030614704E+04,      /* J = 52 */
(PID.TID 0000.0001)                 2.032751416817006E+04,      /* J = 53 */
(PID.TID 0000.0001)      . . .
(PID.TID 0000.0001)                 1.859806253937388E+04,      /* J = 73 */
(PID.TID 0000.0001)                 1.850776029435474E+04,      /* J = 74 */
(PID.TID 0000.0001)                 1.841710568825795E+04,      /* J = 75 */
(PID.TID 0000.0001)                 1.832610044701655E+04,      /* J = 76 */
(PID.TID 0000.0001)                 1.823474630323914E+04,      /* J = 77 */
(PID.TID 0000.0001)                 1.814304499617694E+04,      /* J = 78 */
(PID.TID 0000.0001)      . . .
(PID.TID 0000.0001)                 1.623885040808586E+04,      /* J = 98 */
(PID.TID 0000.0001)                 1.614027184600079E+04,      /* J = 99 */
(PID.TID 0000.0001)                 1.604138599640548E+04       /* J =100 */
(PID.TID 0000.0001)     ;
(PID.TID 0000.0001) dyG =  /* dyG(:,1,:,1) ( units: m ) */
(PID.TID 0000.0001)   100 @  2.779436833800970E+04              /* I =  1:100 */
(PID.TID 0000.0001)     ;
(PID.TID 0000.0001) dyG =  /* dyG(1,:,1,:) ( units: m ) */
(PID.TID 0000.0001)   100 @  2.779436833800970E+04              /* J =  1:100 */
(PID.TID 0000.0001)     ;
(PID.TID 0000.0001) dxC =  /* dxC(:,1,:,1) ( units: m ) */
(PID.TID 0000.0001)   100 @  2.404025285051817E+04              /* I =  1:100 */
(PID.TID 0000.0001)     ;
(PID.TID 0000.0001) dxC =  /* dxC(1,:,1,:) ( units: m ) */
(PID.TID 0000.0001)                 2.404025285051817E+04,      /* J =  1 */
(PID.TID 0000.0001)                 2.397915730173338E+04,      /* J =  2 */
(PID.TID 0000.0001)                 2.391760522435877E+04,      /* J =  3 */
(PID.TID 0000.0001)      . . .
(PID.TID 0000.0001)                 2.259256015386935E+04,      /* J = 23 */
(PID.TID 0000.0001)                 2.252170485848710E+04,      /* J = 24 */
(PID.TID 0000.0001)                 2.245042078230868E+04,      /* J = 25 */
(PID.TID 0000.0001)                 2.237870928248015E+04,      /* J = 26 */
(PID.TID 0000.0001)                 2.230657172428511E+04,      /* J = 27 */
(PID.TID 0000.0001)                 2.223400948111865E+04,      /* J = 28 */
(PID.TID 0000.0001)      . . .
(PID.TID 0000.0001)                 2.069576649803291E+04,      /* J = 48 */
(PID.TID 0000.0001)                 2.061461720595564E+04,      /* J = 49 */
(PID.TID 0000.0001)                 2.053307544128210E+04,      /* J = 50 */
(PID.TID 0000.0001)                 2.045114275644995E+04,      /* J = 51 */
(PID.TID 0000.0001)                 2.036882071133940E+04,      /* J = 52 */
(PID.TID 0000.0001)                 2.028611087324353E+04,      /* J = 53 */
(PID.TID 0000.0001)      . . .
(PID.TID 0000.0001)                 1.855295556960817E+04,      /* J = 73 */
(PID.TID 0000.0001)                 1.846247692872708E+04,      /* J = 74 */
(PID.TID 0000.0001)                 1.837164678889836E+04,      /* J = 75 */
(PID.TID 0000.0001)                 1.828046687939695E+04,      /* J = 76 */
(PID.TID 0000.0001)                 1.818893893615687E+04,      /* J = 77 */
(PID.TID 0000.0001)                 1.809706470173824E+04,      /* J = 78 */
(PID.TID 0000.0001)      . . .
(PID.TID 0000.0001)                 1.618959965541925E+04,      /* J = 98 */
(PID.TID 0000.0001)                 1.609086721461336E+04,      /* J = 99 */
(PID.TID 0000.0001)                 1.599182842689019E+04       /* J =100 */
(PID.TID 0000.0001)     ;
(PID.TID 0000.0001) dyC =  /* dyC(:,1,:,1) ( units: m ) */
(PID.TID 0000.0001)   100 @  2.779436833800970E+04              /* I =  1:100 */
(PID.TID 0000.0001)     ;
(PID.TID 0000.0001) dyC =  /* dyC(1,:,1,:) ( units: m ) */
(PID.TID 0000.0001)   100 @  2.779436833800970E+04              /* J =  1:100 */
(PID.TID 0000.0001)     ;
(PID.TID 0000.0001) dxV =  /* dxV(:,1,:,1) ( units: m ) */
(PID.TID 0000.0001)   100 @  2.407062906285827E+04              /* I =  1:100 */
(PID.TID 0000.0001)     ;
(PID.TID 0000.0001) dxV =  /* dxV(1,:,1,:) ( units: m ) */
(PID.TID 0000.0001)                 2.407062906285827E+04,      /* J =  1 */
(PID.TID 0000.0001)                 2.400976221510167E+04,      /* J =  2 */
(PID.TID 0000.0001)                 2.394843825608182E+04,      /* J =  3 */
(PID.TID 0000.0001)      . . .
(PID.TID 0000.0001)                 2.262782658688523E+04,      /* J = 23 */
(PID.TID 0000.0001)                 2.255718618828079E+04,      /* J = 24 */
(PID.TID 0000.0001)                 2.248611633336681E+04,      /* J = 25 */
(PID.TID 0000.0001)                 2.241461837521088E+04,      /* J = 26 */
(PID.TID 0000.0001)                 2.234269367503106E+04,      /* J = 27 */
(PID.TID 0000.0001)                 2.227034360216997E+04,      /* J = 28 */
(PID.TID 0000.0001)      . . .
(PID.TID 0000.0001)                 2.073619348375353E+04,      /* J = 48 */
(PID.TID 0000.0001)                 2.065524100780463E+04,      /* J = 49 */
(PID.TID 0000.0001)                 2.057389528584083E+04,      /* J = 50 */
(PID.TID 0000.0001)                 2.049215786656742E+04,      /* J = 51 */
(PID.TID 0000.0001)                 2.041003030614704E+04,      /* J = 52 */
(PID.TID 0000.0001)                 2.032751416817006E+04,      /* J = 53 */
(PID.TID 0000.0001)      . . .
(PID.TID 0000.0001)                 1.859806253937388E+04,      /* J = 73 */
(PID.TID 0000.0001)                 1.850776029435474E+04,      /* J = 74 */
(PID.TID 0000.0001)                 1.841710568825795E+04,      /* J = 75 */
(PID.TID 0000.0001)                 1.832610044701655E+04,      /* J = 76 */
(PID.TID 0000.0001)                 1.823474630323914E+04,      /* J = 77 */
(PID.TID 0000.0001)                 1.814304499617694E+04,      /* J = 78 */
(PID.TID 0000.0001)      . . .
(PID.TID 0000.0001)                 1.623885040808586E+04,      /* J = 98 */
(PID.TID 0000.0001)                 1.614027184600079E+04,      /* J = 99 */
(PID.TID 0000.0001)                 1.604138599640548E+04       /* J =100 */
(PID.TID 0000.0001)     ;
(PID.TID 0000.0001) dyU =  /* dyU(:,1,:,1) ( units: m ) */
(PID.TID 0000.0001)   100 @  2.779436833800970E+04              /* I =  1:100 */
(PID.TID 0000.0001)     ;
(PID.TID 0000.0001) dyU =  /* dyU(1,:,1,:) ( units: m ) */
(PID.TID 0000.0001)   100 @  2.779436833800970E+04              /* J =  1:100 */
(PID.TID 0000.0001)     ;
(PID.TID 0000.0001) rA  =  /* rA (:,1,:,1) ( units: m^2 ) */
(PID.TID 0000.0001)   100 @  6.681831126132613E+08              /* I =  1:100 */
(PID.TID 0000.0001)     ;
(PID.TID 0000.0001) rA  =  /* rA (1,:,1,:) ( units: m^2 ) */
(PID.TID 0000.0001)                 6.681831126132613E+08,      /* J =  1 */
(PID.TID 0000.0001)                 6.664850017735666E+08,      /* J =  2 */
(PID.TID 0000.0001)                 6.647742020202218E+08,      /* J =  3 */
(PID.TID 0000.0001)      . . .
(PID.TID 0000.0001)                 6.279454404818789E+08,      /* J = 23 */
(PID.TID 0000.0001)                 6.259760638655939E+08,      /* J = 24 */
(PID.TID 0000.0001)                 6.239947695673566E+08,      /* J = 25 */
(PID.TID 0000.0001)                 6.220015953081915E+08,      /* J = 26 */
(PID.TID 0000.0001)                 6.199965790352323E+08,      /* J = 27 */
(PID.TID 0000.0001)                 6.179797589211514E+08,      /* J = 28 */
(PID.TID 0000.0001)      . . .
(PID.TID 0000.0001)                 5.752253007719541E+08,      /* J = 48 */
(PID.TID 0000.0001)                 5.729698092467850E+08,      /* J = 49 */
(PID.TID 0000.0001)                 5.707034092024101E+08,      /* J = 50 */
(PID.TID 0000.0001)                 5.684261437877442E+08,      /* J = 51 */
(PID.TID 0000.0001)                 5.661380563587053E+08,      /* J = 52 */
(PID.TID 0000.0001)                 5.638391904771134E+08,      /* J = 53 */
(PID.TID 0000.0001)      . . .
(PID.TID 0000.0001)                 5.156672717944663E+08,      /* J = 73 */
(PID.TID 0000.0001)                 5.131524771180277E+08,      /* J = 74 */
(PID.TID 0000.0001)                 5.106279127581214E+08,      /* J = 75 */
(PID.TID 0000.0001)                 5.080936267787932E+08,      /* J = 76 */
(PID.TID 0000.0001)                 5.055496674292141E+08,      /* J = 77 */
(PID.TID 0000.0001)                 5.029960831426970E+08,      /* J = 78 */
(PID.TID 0000.0001)      . . .
(PID.TID 0000.0001)                 4.499793391102898E+08,      /* J = 98 */
(PID.TID 0000.0001)                 4.472351354605254E+08,      /* J = 99 */
(PID.TID 0000.0001)                 4.444824170984655E+08       /* J =100 */
(PID.TID 0000.0001)     ;
(PID.TID 0000.0001) rAw =  /* rAw(:,1,:,1) ( units: m^2 ) */
(PID.TID 0000.0001)   100 @  6.681831126132613E+08              /* I =  1:100 */
(PID.TID 0000.0001)     ;
(PID.TID 0000.0001) rAw =  /* rAw(1,:,1,:) ( units: m^2 ) */
(PID.TID 0000.0001)                 6.681831126132613E+08,      /* J =  1 */
(PID.TID 0000.0001)                 6.664850017735666E+08,      /* J =  2 */
(PID.TID 0000.0001)                 6.647742020202218E+08,      /* J =  3 */
(PID.TID 0000.0001)      . . .
(PID.TID 0000.0001)                 6.279454404818789E+08,      /* J = 23 */
(PID.TID 0000.0001)                 6.259760638655939E+08,      /* J = 24 */
(PID.TID 0000.0001)                 6.239947695673566E+08,      /* J = 25 */
(PID.TID 0000.0001)                 6.220015953081915E+08,      /* J = 26 */
(PID.TID 0000.0001)                 6.199965790352323E+08,      /* J = 27 */
(PID.TID 0000.0001)                 6.179797589211514E+08,      /* J = 28 */
(PID.TID 0000.0001)      . . .
(PID.TID 0000.0001)                 5.752253007719541E+08,      /* J = 48 */
(PID.TID 0000.0001)                 5.729698092467850E+08,      /* J = 49 */
(PID.TID 0000.0001)                 5.707034092024101E+08,      /* J = 50 */
(PID.TID 0000.0001)                 5.684261437877442E+08,      /* J = 51 */
(PID.TID 0000.0001)                 5.661380563587053E+08,      /* J = 52 */
(PID.TID 0000.0001)                 5.638391904771134E+08,      /* J = 53 */
(PID.TID 0000.0001)      . . .
(PID.TID 0000.0001)                 5.156672717944663E+08,      /* J = 73 */
(PID.TID 0000.0001)                 5.131524771180277E+08,      /* J = 74 */
(PID.TID 0000.0001)                 5.106279127581214E+08,      /* J = 75 */
(PID.TID 0000.0001)                 5.080936267787932E+08,      /* J = 76 */
(PID.TID 0000.0001)                 5.055496674292141E+08,      /* J = 77 */
(PID.TID 0000.0001)                 5.029960831426970E+08,      /* J = 78 */
(PID.TID 0000.0001)      . . .
(PID.TID 0000.0001)                 4.499793391102898E+08,      /* J = 98 */
(PID.TID 0000.0001)                 4.472351354605254E+08,      /* J = 99 */
(PID.TID 0000.0001)                 4.444824170984655E+08       /* J =100 */
(PID.TID 0000.0001)     ;
(PID.TID 0000.0001) rAs =  /* rAs(:,1,:,1) ( units: m^2 ) */
(PID.TID 0000.0001)   100 @  6.690273995779943E+08              /* I =  1:100 */
(PID.TID 0000.0001)     ;
(PID.TID 0000.0001) rAs =  /* rAs(1,:,1,:) ( units: m^2 ) */
(PID.TID 0000.0001)                 6.690273995779943E+08,      /* J =  1 */
(PID.TID 0000.0001)                 6.673356453338909E+08,      /* J =  2 */
(PID.TID 0000.0001)                 6.656311859810680E+08,      /* J =  3 */
(PID.TID 0000.0001)      . . .
(PID.TID 0000.0001)                 6.289256479335159E+08,      /* J = 23 */
(PID.TID 0000.0001)                 6.269622442326831E+08,      /* J = 24 */
(PID.TID 0000.0001)                 6.249869040744686E+08,      /* J = 25 */
(PID.TID 0000.0001)                 6.229996650664990E+08,      /* J = 26 */
(PID.TID 0000.0001)                 6.210005650429022E+08,      /* J = 27 */
(PID.TID 0000.0001)                 6.189896420637782E+08,      /* J = 28 */
(PID.TID 0000.0001)      . . .
(PID.TID 0000.0001)                 5.763489424124945E+08,      /* J = 48 */
(PID.TID 0000.0001)                 5.740989212629790E+08,      /* J = 49 */
(PID.TID 0000.0001)                 5.718379700975415E+08,      /* J = 50 */
(PID.TID 0000.0001)                 5.695661319614676E+08,      /* J = 51 */
(PID.TID 0000.0001)                 5.672834501072235E+08,      /* J = 52 */
(PID.TID 0000.0001)                 5.649899679938252E+08,      /* J = 53 */
(PID.TID 0000.0001)      . . .
(PID.TID 0000.0001)                 5.169209905322137E+08,      /* J = 73 */
(PID.TID 0000.0001)                 5.144110986634239E+08,      /* J = 74 */
(PID.TID 0000.0001)                 5.118914131488553E+08,      /* J = 75 */
(PID.TID 0000.0001)                 5.093619819596375E+08,      /* J = 76 */
(PID.TID 0000.0001)                 5.068228532525163E+08,      /* J = 77 */
(PID.TID 0000.0001)                 5.042740753688124E+08,      /* J = 78 */
(PID.TID 0000.0001)      . . .
(PID.TID 0000.0001)                 4.513482315849267E+08,      /* J = 98 */
(PID.TID 0000.0001)                 4.486083048936002E+08,      /* J = 99 */
(PID.TID 0000.0001)                 4.458598373468361E+08       /* J =100 */
(PID.TID 0000.0001)     ;
(PID.TID 0000.0001) globalArea = /* Integrated horizontal Area (m^2) */
(PID.TID 0000.0001)                 3.928595910370639E+12
(PID.TID 0000.0001)     ;
(PID.TID 0000.0001) // =======================================================
(PID.TID 0000.0001) // End of Model config. summary
(PID.TID 0000.0001) // =======================================================
(PID.TID 0000.0001) 
(PID.TID 0000.0001) == Packages configuration : Check & print summary ==
(PID.TID 0000.0001) 
(PID.TID 0000.0001) GAD_CHECK: #define ALLOW_GENERIC_ADVDIFF
(PID.TID 0000.0001) // =======================================================
(PID.TID 0000.0001) // Check Model config. (CONFIG_CHECK):
(PID.TID 0000.0001) // CONFIG_CHECK : Normal End
(PID.TID 0000.0001) // =======================================================
(PID.TID 0000.0001) 
(PID.TID 0000.0001) Start initial hydrostatic pressure computation
(PID.TID 0000.0001) Pressure is predetermined for buoyancyRelation OCEANIC
(PID.TID 0000.0001) 
(PID.TID 0000.0001)  write diagnostics summary to file ioUnit:      6
Iter.Nb:         0 ; Time(s):  0.0000000000000E+00
------------------------------------------------------------------------
2D/3D diagnostics: Number of lists:     1
------------------------------------------------------------------------
listId=    1 ; file name: cheapAML
 nFlds, nActive,       freq     &     phase        , nLev               
    6  |    6  |     14400.000000         0.000000 |   1
 levels:   1
 diag# | name   |   ipt  |  iMate | kLev|   count |   mate.C|           
   183 |CH_TAIR |      1 |      0 |   1 |       0 |
   185 |CH_QAIR |      2 |      0 |   1 |       0 |
   184 |CH_QNET |      3 |      0 |   1 |       0 |
   186 |CH_EmP  |      4 |      0 |   1 |       0 |
   188 |CH_Uwind|      5 |      6 |   1 |       0 |       0 |
   189 |CH_Vwind|      6 |      5 |   1 |       0 |       0 |
------------------------------------------------------------------------
Global & Regional Statistics diagnostics: Number of lists:     0
------------------------------------------------------------------------
 Tair initialized using standard profile
 Qair initialized using standard profile
 Tracer initialized using standard profile
  Generate Cheapaml mask
(PID.TID 0000.0001) // =======================================================
(PID.TID 0000.0001) // Model current state
(PID.TID 0000.0001) // =======================================================
(PID.TID 0000.0001) 
(PID.TID 0000.0001) // =======================================================
(PID.TID 0000.0001) // Begin MONITOR dynamic field statistics
(PID.TID 0000.0001) // =======================================================
(PID.TID 0000.0001) %MON time_tsnumber                =                     0
(PID.TID 0000.0001) %MON time_secondsf                =   0.0000000000000E+00
(PID.TID 0000.0001) %MON dynstat_eta_max              =   0.0000000000000E+00
(PID.TID 0000.0001) %MON dynstat_eta_min              =   0.0000000000000E+00
(PID.TID 0000.0001) %MON dynstat_eta_mean             =   0.0000000000000E+00
(PID.TID 0000.0001) %MON dynstat_eta_sd               =   0.0000000000000E+00
(PID.TID 0000.0001) %MON dynstat_eta_del2             =   0.0000000000000E+00
(PID.TID 0000.0001) %MON dynstat_uvel_max             =   0.0000000000000E+00
(PID.TID 0000.0001) %MON dynstat_uvel_min             =   0.0000000000000E+00
(PID.TID 0000.0001) %MON dynstat_uvel_mean            =   0.0000000000000E+00
(PID.TID 0000.0001) %MON dynstat_uvel_sd              =   0.0000000000000E+00
(PID.TID 0000.0001) %MON dynstat_uvel_del2            =   0.0000000000000E+00
(PID.TID 0000.0001) %MON dynstat_vvel_max             =   0.0000000000000E+00
(PID.TID 0000.0001) %MON dynstat_vvel_min             =   0.0000000000000E+00
(PID.TID 0000.0001) %MON dynstat_vvel_mean            =   0.0000000000000E+00
(PID.TID 0000.0001) %MON dynstat_vvel_sd              =   0.0000000000000E+00
(PID.TID 0000.0001) %MON dynstat_vvel_del2            =   0.0000000000000E+00
(PID.TID 0000.0001) %MON dynstat_wvel_max             =  -0.0000000000000E+00
(PID.TID 0000.0001) %MON dynstat_wvel_min             =  -0.0000000000000E+00
(PID.TID 0000.0001) %MON dynstat_wvel_mean            =   0.0000000000000E+00
(PID.TID 0000.0001) %MON dynstat_wvel_sd              =   0.0000000000000E+00
(PID.TID 0000.0001) %MON dynstat_wvel_del2            =   0.0000000000000E+00
(PID.TID 0000.0001) %MON dynstat_theta_max            =   2.0000000000000E+01
(PID.TID 0000.0001) %MON dynstat_theta_min            =   2.0000000000000E+01
(PID.TID 0000.0001) %MON dynstat_theta_mean           =   2.0000000000000E+01
(PID.TID 0000.0001) %MON dynstat_theta_sd             =   1.9184653865523E-13
(PID.TID 0000.0001) %MON dynstat_theta_del2           =   0.0000000000000E+00
(PID.TID 0000.0001) %MON dynstat_salt_max             =   3.5000000000000E+01
(PID.TID 0000.0001) %MON dynstat_salt_min             =   3.5000000000000E+01
(PID.TID 0000.0001) %MON dynstat_salt_mean            =   3.5000000000000E+01
(PID.TID 0000.0001) %MON dynstat_salt_sd              =   2.1316282072803E-14
(PID.TID 0000.0001) %MON dynstat_salt_del2            =   0.0000000000000E+00
(PID.TID 0000.0001) %MON forcing_qnet_max             =   0.0000000000000E+00
(PID.TID 0000.0001) %MON forcing_qnet_min             =   0.0000000000000E+00
(PID.TID 0000.0001) %MON forcing_qnet_mean            =   0.0000000000000E+00
(PID.TID 0000.0001) %MON forcing_qnet_sd              =   0.0000000000000E+00
(PID.TID 0000.0001) %MON forcing_qnet_del2            =   0.0000000000000E+00
(PID.TID 0000.0001) %MON forcing_qsw_max              =   0.0000000000000E+00
(PID.TID 0000.0001) %MON forcing_qsw_min              =   0.0000000000000E+00
(PID.TID 0000.0001) %MON forcing_qsw_mean             =   0.0000000000000E+00
(PID.TID 0000.0001) %MON forcing_qsw_sd               =   0.0000000000000E+00
(PID.TID 0000.0001) %MON forcing_qsw_del2             =   0.0000000000000E+00
(PID.TID 0000.0001) %MON forcing_empmr_max            =   0.0000000000000E+00
(PID.TID 0000.0001) %MON forcing_empmr_min            =   0.0000000000000E+00
(PID.TID 0000.0001) %MON forcing_empmr_mean           =   0.0000000000000E+00
(PID.TID 0000.0001) %MON forcing_empmr_sd             =   0.0000000000000E+00
(PID.TID 0000.0001) %MON forcing_empmr_del2           =   0.0000000000000E+00
(PID.TID 0000.0001) %MON forcing_fu_max               =   0.0000000000000E+00
(PID.TID 0000.0001) %MON forcing_fu_min               =   0.0000000000000E+00
(PID.TID 0000.0001) %MON forcing_fu_mean              =   0.0000000000000E+00
(PID.TID 0000.0001) %MON forcing_fu_sd                =   0.0000000000000E+00
(PID.TID 0000.0001) %MON forcing_fu_del2              =   0.0000000000000E+00
(PID.TID 0000.0001) %MON forcing_fv_max               =   0.0000000000000E+00
(PID.TID 0000.0001) %MON forcing_fv_min               =   0.0000000000000E+00
(PID.TID 0000.0001) %MON forcing_fv_mean              =   0.0000000000000E+00
(PID.TID 0000.0001) %MON forcing_fv_sd                =   0.0000000000000E+00
(PID.TID 0000.0001) %MON forcing_fv_del2              =   0.0000000000000E+00
(PID.TID 0000.0001) %MON advcfl_uvel_max              =   0.0000000000000E+00
(PID.TID 0000.0001) %MON advcfl_vvel_max              =   0.0000000000000E+00
(PID.TID 0000.0001) %MON advcfl_wvel_max              =   0.0000000000000E+00
(PID.TID 0000.0001) %MON advcfl_W_hf_max              =   0.0000000000000E+00
(PID.TID 0000.0001) %MON pe_b_mean                    =   0.0000000000000E+00
(PID.TID 0000.0001) %MON ke_max                       =   0.0000000000000E+00
(PID.TID 0000.0001) %MON ke_mean                      =   0.0000000000000E+00
(PID.TID 0000.0001) %MON ke_vol                       =   3.9285959103706E+15
(PID.TID 0000.0001) %MON vort_r_min                   =   0.0000000000000E+00
(PID.TID 0000.0001) %MON vort_r_max                   =   0.0000000000000E+00
(PID.TID 0000.0001) %MON vort_a_mean                  =   9.0315070673762E-05
(PID.TID 0000.0001) %MON vort_a_sd                    =   1.0358287086367E-05
(PID.TID 0000.0001) %MON vort_p_mean                  =   9.3807280711835E-05
(PID.TID 0000.0001) %MON vort_p_sd                    =   3.1543568116637E-05
(PID.TID 0000.0001) %MON surfExpan_theta_mean         =   0.0000000000000E+00
(PID.TID 0000.0001) %MON surfExpan_salt_mean          =   0.0000000000000E+00
(PID.TID 0000.0001) // =======================================================
(PID.TID 0000.0001) // End MONITOR dynamic field statistics
(PID.TID 0000.0001) // =======================================================
(PID.TID 0000.0001) SOLVE_FOR_PRESSURE: putPmEinXvector =    F
 cg2d: Sum(rhs),rhsMax =  -2.88657986402541E-14  5.96337708430248E-04
 cg2d: Sum(rhs),rhsMax =  -1.06097386334825E-07  7.60847373890580E-04
 cg2d: Sum(rhs),rhsMax =   2.19985510363507E-08  8.58353403148802E-04
(PID.TID 0000.0001)      cg2d_init_res =   3.52596402296568E+00
(PID.TID 0000.0001)      cg2d_iters(min,last) =      -1      68
(PID.TID 0000.0001)      cg2d_last_res =   7.93215031762018E-08
(PID.TID 0000.0001) // =======================================================
(PID.TID 0000.0001) // Begin MONITOR dynamic field statistics
(PID.TID 0000.0001) // =======================================================
(PID.TID 0000.0001) %MON time_tsnumber                =                     3
(PID.TID 0000.0001) %MON time_secondsf                =   3.6000000000000E+03
(PID.TID 0000.0001) %MON dynstat_eta_max              =   1.0032198234173E-03
(PID.TID 0000.0001) %MON dynstat_eta_min              =  -1.0862706020138E-03
(PID.TID 0000.0001) %MON dynstat_eta_mean             =  -1.4302311384542E-13
(PID.TID 0000.0001) %MON dynstat_eta_sd               =   2.4283544233983E-04
(PID.TID 0000.0001) %MON dynstat_eta_del2             =   6.4759903850650E-08
(PID.TID 0000.0001) %MON dynstat_uvel_max             =   1.2313731412438E-04
(PID.TID 0000.0001) %MON dynstat_uvel_min             =  -1.1520586763891E-04
(PID.TID 0000.0001) %MON dynstat_uvel_mean            =   1.0656202846851E-05
(PID.TID 0000.0001) %MON dynstat_uvel_sd              =   6.0962659830797E-05
(PID.TID 0000.0001) %MON dynstat_uvel_del2            =   8.1538298258678E-08
(PID.TID 0000.0001) %MON dynstat_vvel_max             =   6.3196487396909E-05
(PID.TID 0000.0001) %MON dynstat_vvel_min             =  -4.9586073001335E-05
(PID.TID 0000.0001) %MON dynstat_vvel_mean            =  -1.3922241648100E-06
(PID.TID 0000.0001) %MON dynstat_vvel_sd              =   1.2900389728623E-05
(PID.TID 0000.0001) %MON dynstat_vvel_del2            =   8.9960275001285E-09
(PID.TID 0000.0001) %MON dynstat_wvel_max             =   2.4350743167603E-07
(PID.TID 0000.0001) %MON dynstat_wvel_min             =  -3.2219358313205E-07
(PID.TID 0000.0001) %MON dynstat_wvel_mean            =   1.8401972741377E-23
(PID.TID 0000.0001) %MON dynstat_wvel_sd              =   8.7099437432987E-08
(PID.TID 0000.0001) %MON dynstat_wvel_del2            =   2.9618626497176E-11
(PID.TID 0000.0001) %MON dynstat_theta_max            =   2.0000208314311E+01
(PID.TID 0000.0001) %MON dynstat_theta_min            =   1.9999910269675E+01
(PID.TID 0000.0001) %MON dynstat_theta_mean           =   2.0000105197795E+01
(PID.TID 0000.0001) %MON dynstat_theta_sd             =   2.7770520547922E-05
(PID.TID 0000.0001) %MON dynstat_theta_del2           =   1.1427874295308E-07
(PID.TID 0000.0001) %MON dynstat_salt_max             =   3.5000007230691E+01
(PID.TID 0000.0001) %MON dynstat_salt_min             =   3.4998331467810E+01
(PID.TID 0000.0001) %MON dynstat_salt_mean            =   3.4999975620445E+01
(PID.TID 0000.0001) %MON dynstat_salt_sd              =   1.5813260017492E-04
(PID.TID 0000.0001) %MON dynstat_salt_del2            =   2.3844728213900E-07
(PID.TID 0000.0001) %MON forcing_qnet_max             =   1.6117486249722E+02
(PID.TID 0000.0001) %MON forcing_qnet_min             =  -2.3065942615428E+02
(PID.TID 0000.0001) %MON forcing_qnet_mean            =  -1.1793151632790E+02
(PID.TID 0000.0001) %MON forcing_qnet_sd              =   3.4821794673151E+01
(PID.TID 0000.0001) %MON forcing_qnet_del2            =   2.0845845696172E-01
(PID.TID 0000.0001) %MON forcing_qsw_max              =   0.0000000000000E+00
(PID.TID 0000.0001) %MON forcing_qsw_min              =   0.0000000000000E+00
(PID.TID 0000.0001) %MON forcing_qsw_mean             =   0.0000000000000E+00
(PID.TID 0000.0001) %MON forcing_qsw_sd               =   0.0000000000000E+00
(PID.TID 0000.0001) %MON forcing_qsw_del2             =   0.0000000000000E+00
(PID.TID 0000.0001) %MON forcing_empmr_max            =   6.4804708641196E-05
(PID.TID 0000.0001) %MON forcing_empmr_min            =  -1.3233522876064E-02
(PID.TID 0000.0001) %MON forcing_empmr_mean           =  -1.9354080968944E-04
(PID.TID 0000.0001) %MON forcing_empmr_sd             =   1.2540808893141E-03
(PID.TID 0000.0001) %MON forcing_empmr_del2           =   1.9115714906211E-06
(PID.TID 0000.0001) %MON forcing_fu_max               =   3.6580049893642E-02
(PID.TID 0000.0001) %MON forcing_fu_min               =  -4.1843609277918E-02
(PID.TID 0000.0001) %MON forcing_fu_mean              =   4.3059424452571E-03
(PID.TID 0000.0001) %MON forcing_fu_sd                =   2.0269563545358E-02
(PID.TID 0000.0001) %MON forcing_fu_del2              =   3.0847876037772E-05
(PID.TID 0000.0001) %MON forcing_fv_max               =   1.4188496363284E-07
(PID.TID 0000.0001) %MON forcing_fv_min               =  -1.6154744907069E-07
(PID.TID 0000.0001) %MON forcing_fv_mean              =   4.1746041720784E-09
(PID.TID 0000.0001) %MON forcing_fv_sd                =   2.8609971811458E-08
(PID.TID 0000.0001) %MON forcing_fv_del2              =   4.4325635591217E-11
(PID.TID 0000.0001) %MON advcfl_uvel_max              =   7.2252577134180E-06
(PID.TID 0000.0001) %MON advcfl_vvel_max              =   2.7284586558703E-06
(PID.TID 0000.0001) %MON advcfl_wvel_max              =   7.7326459951691E-07
(PID.TID 0000.0001) %MON advcfl_W_hf_max              =   0.0000000000000E+00
(PID.TID 0000.0001) %MON pe_b_mean                    =   2.8924320033655E-10
(PID.TID 0000.0001) %MON ke_max                       =   7.6697471861714E-09
(PID.TID 0000.0001) %MON ke_mean                      =   1.9709261004370E-09
(PID.TID 0000.0001) %MON ke_vol                       =   3.9285959103706E+15
(PID.TID 0000.0001) %MON vort_r_min                   =  -2.4373184759184E-09
(PID.TID 0000.0001) %MON vort_r_max                   =   7.2379209726316E-09
(PID.TID 0000.0001) %MON vort_a_mean                  =   9.0315070673762E-05
(PID.TID 0000.0001) %MON vort_a_sd                    =   1.0358299918091E-05
(PID.TID 0000.0001) %MON vort_p_mean                  =   9.3807280711835E-05
(PID.TID 0000.0001) %MON vort_p_sd                    =   3.1544217281558E-05
(PID.TID 0000.0001) %MON surfExpan_theta_mean         =   3.5596707436340E-13
(PID.TID 0000.0001) %MON surfExpan_salt_mean          =  -2.6441712673614E-12
(PID.TID 0000.0001) // =======================================================
(PID.TID 0000.0001) // End MONITOR dynamic field statistics
(PID.TID 0000.0001) // =======================================================
 cg2d: Sum(rhs),rhsMax =   2.40300971343643E-07  9.45811429241060E-04
 cg2d: Sum(rhs),rhsMax =   5.16816760942618E-07  1.21831632952921E-03
 cg2d: Sum(rhs),rhsMax =   8.48851289259045E-07  1.51288275186628E-03
(PID.TID 0000.0001)      cg2d_init_res =   2.00391988669986E+00
(PID.TID 0000.0001)      cg2d_iters(min,last) =      -1      66
(PID.TID 0000.0001)      cg2d_last_res =   7.60960496051177E-08
(PID.TID 0000.0001) // =======================================================
(PID.TID 0000.0001) // Begin MONITOR dynamic field statistics
(PID.TID 0000.0001) // =======================================================
(PID.TID 0000.0001) %MON time_tsnumber                =                     6
(PID.TID 0000.0001) %MON time_secondsf                =   7.2000000000000E+03
(PID.TID 0000.0001) %MON dynstat_eta_max              =   1.5102193404587E-03
(PID.TID 0000.0001) %MON dynstat_eta_min              =  -2.1232901066668E-03
(PID.TID 0000.0001) %MON dynstat_eta_mean             =  -1.2424902165500E-12
(PID.TID 0000.0001) %MON dynstat_eta_sd               =   5.5927282804360E-04
(PID.TID 0000.0001) %MON dynstat_eta_del2             =   1.5369092520771E-07
(PID.TID 0000.0001) %MON dynstat_uvel_max             =   2.2644925565170E-04
(PID.TID 0000.0001) %MON dynstat_uvel_min             =  -2.2282250825400E-04
(PID.TID 0000.0001) %MON dynstat_uvel_mean            =   1.4728691232357E-05
(PID.TID 0000.0001) %MON dynstat_uvel_sd              =   1.0267976929095E-04
(PID.TID 0000.0001) %MON dynstat_uvel_del2            =   2.0661320460689E-07
(PID.TID 0000.0001) %MON dynstat_vvel_max             =   1.4992101081784E-04
(PID.TID 0000.0001) %MON dynstat_vvel_min             =  -1.4304489423492E-04
(PID.TID 0000.0001) %MON dynstat_vvel_mean            =  -3.0783227715942E-06
(PID.TID 0000.0001) %MON dynstat_vvel_sd              =   4.2410225236391E-05
(PID.TID 0000.0001) %MON dynstat_vvel_del2            =   1.7528159710053E-08
(PID.TID 0000.0001) %MON dynstat_wvel_max             =   2.1622735017863E-07
(PID.TID 0000.0001) %MON dynstat_wvel_min             =  -2.8732367246925E-07
(PID.TID 0000.0001) %MON dynstat_wvel_mean            =  -3.8878241927032E-23
(PID.TID 0000.0001) %MON dynstat_wvel_sd              =   9.6126559714717E-08
(PID.TID 0000.0001) %MON dynstat_wvel_del2            =   2.7436937926590E-11
(PID.TID 0000.0001) %MON dynstat_theta_max            =   2.0000415509690E+01
(PID.TID 0000.0001) %MON dynstat_theta_min            =   1.9999732693150E+01
(PID.TID 0000.0001) %MON dynstat_theta_mean           =   2.0000212090789E+01
(PID.TID 0000.0001) %MON dynstat_theta_sd             =   6.2238169851125E-05
(PID.TID 0000.0001) %MON dynstat_theta_del2           =   3.1357339115340E-07
(PID.TID 0000.0001) %MON dynstat_salt_max             =   3.5000016448540E+01
(PID.TID 0000.0001) %MON dynstat_salt_min             =   3.4996667592208E+01
(PID.TID 0000.0001) %MON dynstat_salt_mean            =   3.4999951304464E+01
(PID.TID 0000.0001) %MON dynstat_salt_sd              =   3.1570270361699E-04
(PID.TID 0000.0001) %MON dynstat_salt_del2            =   4.7056249041974E-07
(PID.TID 0000.0001) %MON forcing_qnet_max             =   2.0495544874543E+02
(PID.TID 0000.0001) %MON forcing_qnet_min             =  -2.2941328030996E+02
(PID.TID 0000.0001) %MON forcing_qnet_mean            =  -1.1871554664330E+02
(PID.TID 0000.0001) %MON forcing_qnet_sd              =   4.1354728348318E+01
(PID.TID 0000.0001) %MON forcing_qnet_del2            =   2.2609218901284E-01
(PID.TID 0000.0001) %MON forcing_qsw_max              =   0.0000000000000E+00
(PID.TID 0000.0001) %MON forcing_qsw_min              =   0.0000000000000E+00
(PID.TID 0000.0001) %MON forcing_qsw_mean             =   0.0000000000000E+00
(PID.TID 0000.0001) %MON forcing_qsw_sd               =   0.0000000000000E+00
(PID.TID 0000.0001) %MON forcing_qsw_del2             =   0.0000000000000E+00
(PID.TID 0000.0001) %MON forcing_empmr_max            =   7.3249438328108E-05
(PID.TID 0000.0001) %MON forcing_empmr_min            =  -1.3198916888038E-02
(PID.TID 0000.0001) %MON forcing_empmr_mean           =  -1.9283519212565E-04
(PID.TID 0000.0001) %MON forcing_empmr_sd             =   1.2503074133804E-03
(PID.TID 0000.0001) %MON forcing_empmr_del2           =   1.9462301060132E-06
(PID.TID 0000.0001) %MON forcing_fu_max               =   3.7238466508873E-02
(PID.TID 0000.0001) %MON forcing_fu_min               =  -4.3778562183215E-02
(PID.TID 0000.0001) %MON forcing_fu_mean              =   4.6360289757700E-03
(PID.TID 0000.0001) %MON forcing_fu_sd                =   1.9931906674750E-02
(PID.TID 0000.0001) %MON forcing_fu_del2              =   3.5310856768200E-05
(PID.TID 0000.0001) %MON forcing_fv_max               =   5.6086654761480E-07
(PID.TID 0000.0001) %MON forcing_fv_min               =  -6.1989683004223E-07
(PID.TID 0000.0001) %MON forcing_fv_mean              =   2.0020686071821E-08
(PID.TID 0000.0001) %MON forcing_fv_sd                =   1.3435410066296E-07
(PID.TID 0000.0001) %MON forcing_fv_del2              =   1.8916527290321E-10
(PID.TID 0000.0001) %MON advcfl_uvel_max              =   1.3287233384371E-05
(PID.TID 0000.0001) %MON advcfl_vvel_max              =   6.4727217684374E-06
(PID.TID 0000.0001) %MON advcfl_wvel_max              =   6.8957681392620E-07
(PID.TID 0000.0001) %MON advcfl_W_hf_max              =   0.0000000000000E+00
(PID.TID 0000.0001) %MON pe_b_mean                    =   1.5342158018016E-09
(PID.TID 0000.0001) %MON ke_max                       =   2.6238274716393E-08
(PID.TID 0000.0001) %MON ke_mean                      =   6.1947718018085E-09
(PID.TID 0000.0001) %MON ke_vol                       =   3.9285959103706E+15
(PID.TID 0000.0001) %MON vort_r_min                   =  -6.5178941926685E-09
(PID.TID 0000.0001) %MON vort_r_max                   =   1.1180564785499E-08
(PID.TID 0000.0001) %MON vort_a_mean                  =   9.0315070673762E-05
(PID.TID 0000.0001) %MON vort_a_sd                    =   1.0358303871254E-05
(PID.TID 0000.0001) %MON vort_p_mean                  =   9.3807280711835E-05
(PID.TID 0000.0001) %MON vort_p_sd                    =   3.1544741598355E-05
(PID.TID 0000.0001) %MON surfExpan_theta_mean         =   1.3748011714839E-12
(PID.TID 0000.0001) %MON surfExpan_salt_mean          =  -7.4081764112366E-12
(PID.TID 0000.0001) // =======================================================
(PID.TID 0000.0001) // End MONITOR dynamic field statistics
(PID.TID 0000.0001) // =======================================================
 cg2d: Sum(rhs),rhsMax =   1.09133019954299E-06  1.80921849463035E-03
 cg2d: Sum(rhs),rhsMax =   1.36284840746015E-06  2.11061674186084E-03
 cg2d: Sum(rhs),rhsMax =   1.66266413614835E-06  2.41898859901008E-03
(PID.TID 0000.0001)      cg2d_init_res =   1.04299696471587E+00
(PID.TID 0000.0001)      cg2d_iters(min,last) =      -1      64
(PID.TID 0000.0001)      cg2d_last_res =   8.59607692910876E-08
(PID.TID 0000.0001) // =======================================================
(PID.TID 0000.0001) // Begin MONITOR dynamic field statistics
(PID.TID 0000.0001) // =======================================================
(PID.TID 0000.0001) %MON time_tsnumber                =                     9
(PID.TID 0000.0001) %MON time_secondsf                =   1.0800000000000E+04
(PID.TID 0000.0001) %MON dynstat_eta_max              =   1.8300685353047E-03
(PID.TID 0000.0001) %MON dynstat_eta_min              =  -2.9406057330995E-03
(PID.TID 0000.0001) %MON dynstat_eta_mean             =  -3.1449692610953E-12
(PID.TID 0000.0001) %MON dynstat_eta_sd               =   8.0057072540371E-04
(PID.TID 0000.0001) %MON dynstat_eta_del2             =   2.4081130335714E-07
(PID.TID 0000.0001) %MON dynstat_uvel_max             =   2.9270083126913E-04
(PID.TID 0000.0001) %MON dynstat_uvel_min             =  -3.1304595951303E-04
(PID.TID 0000.0001) %MON dynstat_uvel_mean            =   1.3492228821294E-05
(PID.TID 0000.0001) %MON dynstat_uvel_sd              =   1.3355630120517E-04
(PID.TID 0000.0001) %MON dynstat_uvel_del2            =   3.2371583149383E-07
(PID.TID 0000.0001) %MON dynstat_vvel_max             =   2.8544684260665E-04
(PID.TID 0000.0001) %MON dynstat_vvel_min             =  -2.5241919470293E-04
(PID.TID 0000.0001) %MON dynstat_vvel_mean            =  -2.1704843928399E-06
(PID.TID 0000.0001) %MON dynstat_vvel_sd              =   8.2221854157048E-05
(PID.TID 0000.0001) %MON dynstat_vvel_del2            =   2.3405301863672E-08
(PID.TID 0000.0001) %MON dynstat_wvel_max             =   1.9186040367951E-07
(PID.TID 0000.0001) %MON dynstat_wvel_min             =  -2.0253470668980E-07
(PID.TID 0000.0001) %MON dynstat_wvel_mean            =  -1.7068496455770E-23
(PID.TID 0000.0001) %MON dynstat_wvel_sd              =   6.8118664553897E-08
(PID.TID 0000.0001) %MON dynstat_wvel_del2            =   2.8664664912596E-11
(PID.TID 0000.0001) %MON dynstat_theta_max            =   2.0000621557588E+01
(PID.TID 0000.0001) %MON dynstat_theta_min            =   1.9999545449153E+01
(PID.TID 0000.0001) %MON dynstat_theta_mean           =   2.0000319123863E+01
(PID.TID 0000.0001) %MON dynstat_theta_sd             =   1.0059226432326E-04
(PID.TID 0000.0001) %MON dynstat_theta_del2           =   5.0188781757545E-07
(PID.TID 0000.0001) %MON dynstat_salt_max             =   3.5000025759499E+01
(PID.TID 0000.0001) %MON dynstat_salt_min             =   3.4995008846344E+01
(PID.TID 0000.0001) %MON dynstat_salt_mean            =   3.4999927118117E+01
(PID.TID 0000.0001) %MON dynstat_salt_sd              =   4.7271475801418E-04
(PID.TID 0000.0001) %MON dynstat_salt_del2            =   6.9349466208399E-07
(PID.TID 0000.0001) %MON forcing_qnet_max             =   2.0797308005072E+02
(PID.TID 0000.0001) %MON forcing_qnet_min             =  -2.2850101223040E+02
(PID.TID 0000.0001) %MON forcing_qnet_mean            =  -1.1868725734342E+02
(PID.TID 0000.0001) %MON forcing_qnet_sd              =   4.4438352504965E+01
(PID.TID 0000.0001) %MON forcing_qnet_del2            =   2.0927243964274E-01
(PID.TID 0000.0001) %MON forcing_qsw_max              =   0.0000000000000E+00
(PID.TID 0000.0001) %MON forcing_qsw_min              =   0.0000000000000E+00
(PID.TID 0000.0001) %MON forcing_qsw_mean             =   0.0000000000000E+00
(PID.TID 0000.0001) %MON forcing_qsw_sd               =   0.0000000000000E+00
(PID.TID 0000.0001) %MON forcing_qsw_del2             =   0.0000000000000E+00
(PID.TID 0000.0001) %MON forcing_empmr_max            =   7.3836982459490E-05
(PID.TID 0000.0001) %MON forcing_empmr_min            =  -1.3158745049586E-02
(PID.TID 0000.0001) %MON forcing_empmr_mean           =  -1.9162699910230E-04
(PID.TID 0000.0001) %MON forcing_empmr_sd             =   1.2468701199381E-03
(PID.TID 0000.0001) %MON forcing_empmr_del2           =   2.0713708437193E-06
(PID.TID 0000.0001) %MON forcing_fu_max               =   3.7396412375808E-02
(PID.TID 0000.0001) %MON forcing_fu_min               =  -4.4120968753351E-02
(PID.TID 0000.0001) %MON forcing_fu_mean              =   4.7730524747614E-03
(PID.TID 0000.0001) %MON forcing_fu_sd                =   1.9830146591121E-02
(PID.TID 0000.0001) %MON forcing_fu_del2              =   3.3197070201564E-05
(PID.TID 0000.0001) %MON forcing_fv_max               =   1.0577248483250E-06
(PID.TID 0000.0001) %MON forcing_fv_min               =  -1.3335562184341E-06
(PID.TID 0000.0001) %MON forcing_fv_mean              =   2.0334321548356E-08
(PID.TID 0000.0001) %MON forcing_fv_sd                =   2.7400726710027E-07
(PID.TID 0000.0001) %MON forcing_fv_del2              =   3.7522975284936E-10
(PID.TID 0000.0001) %MON advcfl_uvel_max              =   1.7174639173265E-05
(PID.TID 0000.0001) %MON advcfl_vvel_max              =   1.2323943000336E-05
(PID.TID 0000.0001) %MON advcfl_wvel_max              =   4.8608329605552E-07
(PID.TID 0000.0001) %MON advcfl_W_hf_max              =   0.0000000000000E+00
(PID.TID 0000.0001) %MON pe_b_mean                    =   3.1436806506617E-09
(PID.TID 0000.0001) %MON ke_max                       =   4.8996930839606E-08
(PID.TID 0000.0001) %MON ke_mean                      =   1.2214843566229E-08
(PID.TID 0000.0001) %MON ke_vol                       =   3.9285959103706E+15
(PID.TID 0000.0001) %MON vort_r_min                   =  -1.0259482076158E-08
(PID.TID 0000.0001) %MON vort_r_max                   =   1.3309530137165E-08
(PID.TID 0000.0001) %MON vort_a_mean                  =   9.0315070673762E-05
(PID.TID 0000.0001) %MON vort_a_sd                    =   1.0358299761109E-05
(PID.TID 0000.0001) %MON vort_p_mean                  =   9.3807280711835E-05
(PID.TID 0000.0001) %MON vort_p_sd                    =   3.1545232973904E-05
(PID.TID 0000.0001) %MON surfExpan_theta_mean         =   1.3751532073157E-12
(PID.TID 0000.0001) %MON surfExpan_salt_mean          =  -9.2572123838104E-12
(PID.TID 0000.0001) // =======================================================
(PID.TID 0000.0001) // End MONITOR dynamic field statistics
(PID.TID 0000.0001) // =======================================================
 cg2d: Sum(rhs),rhsMax =   1.82734910048055E-06  2.73494835161520E-03
 cg2d: Sum(rhs),rhsMax =   2.00536312711108E-06  3.05812382681536E-03
 cg2d: Sum(rhs),rhsMax =   2.09965173780802E-06  3.38744492031231E-03
(PID.TID 0000.0001)      cg2d_init_res =   7.06017797005178E-01
(PID.TID 0000.0001)      cg2d_iters(min,last) =      -1      62
(PID.TID 0000.0001)      cg2d_last_res =   9.96144006608032E-08
(PID.TID 0000.0001) // =======================================================
(PID.TID 0000.0001) // Begin MONITOR dynamic field statistics
(PID.TID 0000.0001) // =======================================================
(PID.TID 0000.0001) %MON time_tsnumber                =                    12
(PID.TID 0000.0001) %MON time_secondsf                =   1.4400000000000E+04
(PID.TID 0000.0001) %MON dynstat_eta_max              =   2.4419073491976E-03
(PID.TID 0000.0001) %MON dynstat_eta_min              =  -3.4506813277413E-03
(PID.TID 0000.0001) %MON dynstat_eta_mean             =  -5.3307075802484E-12
(PID.TID 0000.0001) %MON dynstat_eta_sd               =   9.0525505419268E-04
(PID.TID 0000.0001) %MON dynstat_eta_del2             =   3.2534649838583E-07
(PID.TID 0000.0001) %MON dynstat_uvel_max             =   3.4864291480032E-04
(PID.TID 0000.0001) %MON dynstat_uvel_min             =  -3.9251386790957E-04
(PID.TID 0000.0001) %MON dynstat_uvel_mean            =   8.4708087229877E-06
(PID.TID 0000.0001) %MON dynstat_uvel_sd              =   1.6304877869728E-04
(PID.TID 0000.0001) %MON dynstat_uvel_del2            =   4.2974730383150E-07
(PID.TID 0000.0001) %MON dynstat_vvel_max             =   4.3397627048007E-04
(PID.TID 0000.0001) %MON dynstat_vvel_min             =  -3.6304642409957E-04
(PID.TID 0000.0001) %MON dynstat_vvel_mean            =   5.6943358194836E-07
(PID.TID 0000.0001) %MON dynstat_vvel_sd              =   1.2516024202121E-04
(PID.TID 0000.0001) %MON dynstat_vvel_del2            =   2.9251040855754E-08
(PID.TID 0000.0001) %MON dynstat_wvel_max             =   1.6504494182811E-07
(PID.TID 0000.0001) %MON dynstat_wvel_min             =  -1.4223664152614E-07
(PID.TID 0000.0001) %MON dynstat_wvel_mean            =  -8.0601233263360E-24
(PID.TID 0000.0001) %MON dynstat_wvel_sd              =   5.3445629981601E-08
(PID.TID 0000.0001) %MON dynstat_wvel_del2            =   3.0769256777553E-11
(PID.TID 0000.0001) %MON dynstat_theta_max            =   2.0000826399921E+01
(PID.TID 0000.0001) %MON dynstat_theta_min            =   1.9999358338117E+01
(PID.TID 0000.0001) %MON dynstat_theta_mean           =   2.0000425980719E+01
(PID.TID 0000.0001) %MON dynstat_theta_sd             =   1.4097293875947E-04
(PID.TID 0000.0001) %MON dynstat_theta_del2           =   6.7294078736809E-07
(PID.TID 0000.0001) %MON dynstat_salt_max             =   3.5000035052528E+01
(PID.TID 0000.0001) %MON dynstat_salt_min             =   3.4993356003191E+01
(PID.TID 0000.0001) %MON dynstat_salt_mean            =   3.4999903075298E+01
(PID.TID 0000.0001) %MON dynstat_salt_sd              =   6.2906556762077E-04
(PID.TID 0000.0001) %MON dynstat_salt_del2            =   9.1148127771760E-07
(PID.TID 0000.0001) %MON forcing_qnet_max             =   2.0731266083694E+02
(PID.TID 0000.0001) %MON forcing_qnet_min             =  -2.2881956024048E+02
(PID.TID 0000.0001) %MON forcing_qnet_mean            =  -1.1843462532985E+02
(PID.TID 0000.0001) %MON forcing_qnet_sd              =   4.6161847100327E+01
(PID.TID 0000.0001) %MON forcing_qnet_del2            =   1.9116394729832E-01
(PID.TID 0000.0001) %MON forcing_qsw_max              =   0.0000000000000E+00
(PID.TID 0000.0001) %MON forcing_qsw_min              =   0.0000000000000E+00
(PID.TID 0000.0001) %MON forcing_qsw_mean             =   0.0000000000000E+00
(PID.TID 0000.0001) %MON forcing_qsw_sd               =   0.0000000000000E+00
(PID.TID 0000.0001) %MON forcing_qsw_del2             =   0.0000000000000E+00
(PID.TID 0000.0001) %MON forcing_empmr_max            =   7.3718293833675E-05
(PID.TID 0000.0001) %MON forcing_empmr_min            =  -1.3112366746032E-02
(PID.TID 0000.0001) %MON forcing_empmr_mean           =  -1.9075610836541E-04
(PID.TID 0000.0001) %MON forcing_empmr_sd             =   1.2428494885677E-03
(PID.TID 0000.0001) %MON forcing_empmr_del2           =   2.0782008125692E-06
(PID.TID 0000.0001) %MON forcing_fu_max               =   3.7430862528578E-02
(PID.TID 0000.0001) %MON forcing_fu_min               =  -4.4159445785200E-02
(PID.TID 0000.0001) %MON forcing_fu_mean              =   4.8550187524416E-03
(PID.TID 0000.0001) %MON forcing_fu_sd                =   1.9786420291488E-02
(PID.TID 0000.0001) %MON forcing_fu_del2              =   3.0393664028067E-05
(PID.TID 0000.0001) %MON forcing_fv_max               =   1.5970108579828E-06
(PID.TID 0000.0001) %MON forcing_fv_min               =  -2.1686866685636E-06
(PID.TID 0000.0001) %MON forcing_fv_mean              =   1.1989800141733E-08
(PID.TID 0000.0001) %MON forcing_fv_sd                =   4.3850532339903E-07
(PID.TID 0000.0001) %MON forcing_fv_del2              =   5.5999598886441E-10
(PID.TID 0000.0001) %MON advcfl_uvel_max              =   2.0375491190143E-05
(PID.TID 0000.0001) %MON advcfl_vvel_max              =   1.8736584269264E-05
(PID.TID 0000.0001) %MON advcfl_wvel_max              =   3.9610786038745E-07
(PID.TID 0000.0001) %MON advcfl_W_hf_max              =   0.0000000000000E+00
(PID.TID 0000.0001) %MON pe_b_mean                    =   4.0195823279585E-09
(PID.TID 0000.0001) %MON ke_max                       =   9.4046841784192E-08
(PID.TID 0000.0001) %MON ke_mean                      =   2.0856496439340E-08
(PID.TID 0000.0001) %MON ke_vol                       =   3.9285959103706E+15
(PID.TID 0000.0001) %MON vort_r_min                   =  -1.2823629128003E-08
(PID.TID 0000.0001) %MON vort_r_max                   =   2.0235011878301E-08
(PID.TID 0000.0001) %MON vort_a_mean                  =   9.0315070673762E-05
(PID.TID 0000.0001) %MON vort_a_sd                    =   1.0358289418927E-05
(PID.TID 0000.0001) %MON vort_p_mean                  =   9.3807280711835E-05
(PID.TID 0000.0001) %MON vort_p_sd                    =   3.1545721712105E-05
(PID.TID 0000.0001) %MON surfExpan_theta_mean         =   4.9897593641787E-13
(PID.TID 0000.0001) %MON surfExpan_salt_mean          =  -9.8104693720005E-12
(PID.TID 0000.0001) // =======================================================
(PID.TID 0000.0001) // End MONITOR dynamic field statistics
(PID.TID 0000.0001) // =======================================================
 Computing Diagnostic #    183  CH_TAIR      Counter:      12   Parms: SM      L1      
 Computing Diagnostic #    185  CH_QAIR      Counter:      12   Parms: SM      L1      
 Computing Diagnostic #    184  CH_QNET      Counter:      12   Parms: SM      L1      
 Computing Diagnostic #    186  CH_EmP       Counter:      12   Parms: SM      L1      
 Computing Diagnostic #    188  CH_Uwind     Counter:      12   Parms: UU      L1      
           Vector  Mate for  CH_Uwind     Diagnostic #    189  CH_Vwind exists 
 Computing Diagnostic #    189  CH_Vwind     Counter:      12   Parms: VV      L1      
           Vector  Mate for  CH_Vwind     Diagnostic #    188  CH_Uwind exists 
 cg2d: Sum(rhs),rhsMax =   2.27618306247734E-06  3.72161822631563E-03
 cg2d: Sum(rhs),rhsMax =   2.52761334884610E-06  4.05923761457487E-03
 cg2d: Sum(rhs),rhsMax =   2.86205061428291E-06  4.39931567496927E-03
(PID.TID 0000.0001)      cg2d_init_res =   5.39020624877235E-01
(PID.TID 0000.0001)      cg2d_iters(min,last) =      -1      61
(PID.TID 0000.0001)      cg2d_last_res =   8.63770951140721E-08
(PID.TID 0000.0001) // =======================================================
(PID.TID 0000.0001) // Begin MONITOR dynamic field statistics
(PID.TID 0000.0001) // =======================================================
(PID.TID 0000.0001) %MON time_tsnumber                =                    15
(PID.TID 0000.0001) %MON time_secondsf                =   1.8000000000000E+04
(PID.TID 0000.0001) %MON dynstat_eta_max              =   3.0355040693344E-03
(PID.TID 0000.0001) %MON dynstat_eta_min              =  -3.5871504619937E-03
(PID.TID 0000.0001) %MON dynstat_eta_mean             =  -9.4279649746008E-12
(PID.TID 0000.0001) %MON dynstat_eta_sd               =   9.3123628060635E-04
(PID.TID 0000.0001) %MON dynstat_eta_del2             =   4.0673440366852E-07
(PID.TID 0000.0001) %MON dynstat_uvel_max             =   4.0634921533771E-04
(PID.TID 0000.0001) %MON dynstat_uvel_min             =  -4.8665695224685E-04
(PID.TID 0000.0001) %MON dynstat_uvel_mean            =   5.6735885967335E-07
(PID.TID 0000.0001) %MON dynstat_uvel_sd              =   1.9619325420208E-04
(PID.TID 0000.0001) %MON dynstat_uvel_del2            =   5.2621283568676E-07
(PID.TID 0000.0001) %MON dynstat_vvel_max             =   5.6945696050404E-04
(PID.TID 0000.0001) %MON dynstat_vvel_min             =  -4.6693875115740E-04
(PID.TID 0000.0001) %MON dynstat_vvel_mean            =   3.0002224399900E-06
(PID.TID 0000.0001) %MON dynstat_vvel_sd              =   1.6348080226778E-04
(PID.TID 0000.0001) %MON dynstat_vvel_del2            =   3.5986721542233E-08
(PID.TID 0000.0001) %MON dynstat_wvel_max             =   1.7100390885911E-07
(PID.TID 0000.0001) %MON dynstat_wvel_min             =  -1.5387187774615E-07
(PID.TID 0000.0001) %MON dynstat_wvel_mean            =  -2.3706245077459E-25
(PID.TID 0000.0001) %MON dynstat_wvel_sd              =   5.7059743545644E-08
(PID.TID 0000.0001) %MON dynstat_wvel_del2            =   2.9216519996695E-11
(PID.TID 0000.0001) %MON dynstat_theta_max            =   2.0001029989119E+01
(PID.TID 0000.0001) %MON dynstat_theta_min            =   1.9999171767491E+01
(PID.TID 0000.0001) %MON dynstat_theta_mean           =   2.0000532554943E+01
(PID.TID 0000.0001) %MON dynstat_theta_sd             =   1.8258705275344E-04
(PID.TID 0000.0001) %MON dynstat_theta_del2           =   8.2950382204774E-07
(PID.TID 0000.0001) %MON dynstat_salt_max             =   3.5000044332779E+01
(PID.TID 0000.0001) %MON dynstat_salt_min             =   3.4991709929462E+01
(PID.TID 0000.0001) %MON dynstat_salt_mean            =   3.4999879136684E+01
(PID.TID 0000.0001) %MON dynstat_salt_sd              =   7.8471150564709E-04
(PID.TID 0000.0001) %MON dynstat_salt_del2            =   1.1268725293784E-06
(PID.TID 0000.0001) %MON forcing_qnet_max             =   2.0687346372750E+02
(PID.TID 0000.0001) %MON forcing_qnet_min             =  -2.2874618477314E+02
(PID.TID 0000.0001) %MON forcing_qnet_mean            =  -1.1809926616817E+02
(PID.TID 0000.0001) %MON forcing_qnet_sd              =   4.7322888596190E+01
(PID.TID 0000.0001) %MON forcing_qnet_del2            =   1.7706990039527E-01
(PID.TID 0000.0001) %MON forcing_qsw_max              =   0.0000000000000E+00
(PID.TID 0000.0001) %MON forcing_qsw_min              =   0.0000000000000E+00
(PID.TID 0000.0001) %MON forcing_qsw_mean             =   0.0000000000000E+00
(PID.TID 0000.0001) %MON forcing_qsw_sd               =   0.0000000000000E+00
(PID.TID 0000.0001) %MON forcing_qsw_del2             =   0.0000000000000E+00
(PID.TID 0000.0001) %MON forcing_empmr_max            =   7.3637952524377E-05
(PID.TID 0000.0001) %MON forcing_empmr_min            =  -1.3065936505791E-02
(PID.TID 0000.0001) %MON forcing_empmr_mean           =  -1.8968572544973E-04
(PID.TID 0000.0001) %MON forcing_empmr_sd             =   1.2386976424463E-03
(PID.TID 0000.0001) %MON forcing_empmr_del2           =   2.1464279645122E-06
(PID.TID 0000.0001) %MON forcing_fu_max               =   3.7437445112145E-02
(PID.TID 0000.0001) %MON forcing_fu_min               =  -4.4154880129422E-02
(PID.TID 0000.0001) %MON forcing_fu_mean              =   4.9144985978340E-03
(PID.TID 0000.0001) %MON forcing_fu_sd                =   1.9765209593919E-02
(PID.TID 0000.0001) %MON forcing_fu_del2              =   2.8029667914534E-05
(PID.TID 0000.0001) %MON forcing_fv_max               =   2.1666572494700E-06
(PID.TID 0000.0001) %MON forcing_fv_min               =  -2.9477106983165E-06
(PID.TID 0000.0001) %MON forcing_fv_mean              =   9.4310377158008E-09
(PID.TID 0000.0001) %MON forcing_fv_sd                =   6.0017798858435E-07
(PID.TID 0000.0001) %MON forcing_fv_del2              =   7.3886281483841E-10
(PID.TID 0000.0001) %MON advcfl_uvel_max              =   2.4609477019095E-05
(PID.TID 0000.0001) %MON advcfl_vvel_max              =   2.4585856540958E-05
(PID.TID 0000.0001) %MON advcfl_wvel_max              =   4.1040938126188E-07
(PID.TID 0000.0001) %MON advcfl_W_hf_max              =   0.0000000000000E+00
(PID.TID 0000.0001) %MON pe_b_mean                    =   4.2536209556076E-09
(PID.TID 0000.0001) %MON ke_max                       =   1.6200770713791E-07
(PID.TID 0000.0001) %MON ke_mean                      =   3.2143164998189E-08
(PID.TID 0000.0001) %MON ke_vol                       =   3.9285959103706E+15
(PID.TID 0000.0001) %MON vort_r_min                   =  -1.4429781475735E-08
(PID.TID 0000.0001) %MON vort_r_max                   =   2.6529641484188E-08
(PID.TID 0000.0001) %MON vort_a_mean                  =   9.0315070673762E-05
(PID.TID 0000.0001) %MON vort_a_sd                    =   1.0358274126740E-05
(PID.TID 0000.0001) %MON vort_p_mean                  =   9.3807280711835E-05
(PID.TID 0000.0001) %MON vort_p_sd                    =   3.1546219235327E-05
(PID.TID 0000.0001) %MON surfExpan_theta_mean         =   1.5683562691189E-13
(PID.TID 0000.0001) %MON surfExpan_salt_mean          =  -1.2850871870563E-11
(PID.TID 0000.0001) // =======================================================
(PID.TID 0000.0001) // End MONITOR dynamic field statistics
(PID.TID 0000.0001) // =======================================================
 cg2d: Sum(rhs),rhsMax =   3.15994369337602E-06  4.74124921392181E-03
 cg2d: Sum(rhs),rhsMax =   3.02833007026493E-06  5.08494019016402E-03
 cg2d: Sum(rhs),rhsMax =   2.65089708761934E-06  5.43063406049989E-03
(PID.TID 0000.0001)      cg2d_init_res =   4.21759309847554E-01
(PID.TID 0000.0001)      cg2d_iters(min,last) =      -1      60
(PID.TID 0000.0001)      cg2d_last_res =   8.82482107213317E-08
(PID.TID 0000.0001) // =======================================================
(PID.TID 0000.0001) // Begin MONITOR dynamic field statistics
(PID.TID 0000.0001) // =======================================================
(PID.TID 0000.0001) %MON time_tsnumber                =                    18
(PID.TID 0000.0001) %MON time_secondsf                =   2.1600000000000E+04
(PID.TID 0000.0001) %MON dynstat_eta_max              =   3.6898801944839E-03
(PID.TID 0000.0001) %MON dynstat_eta_min              =  -3.4622335394000E-03
(PID.TID 0000.0001) %MON dynstat_eta_mean             =  -7.9784546083669E-12
(PID.TID 0000.0001) %MON dynstat_eta_sd               =   9.5137900695580E-04
(PID.TID 0000.0001) %MON dynstat_eta_del2             =   4.8457770984006E-07
(PID.TID 0000.0001) %MON dynstat_uvel_max             =   4.6770272929759E-04
(PID.TID 0000.0001) %MON dynstat_uvel_min             =  -5.9848661912732E-04
(PID.TID 0000.0001) %MON dynstat_uvel_mean            =  -8.9554175105455E-06
(PID.TID 0000.0001) %MON dynstat_uvel_sd              =   2.3384890579372E-04
(PID.TID 0000.0001) %MON dynstat_uvel_del2            =   6.1463387502274E-07
(PID.TID 0000.0001) %MON dynstat_vvel_max             =   6.7933804287510E-04
(PID.TID 0000.0001) %MON dynstat_vvel_min             =  -5.5976536546210E-04
(PID.TID 0000.0001) %MON dynstat_vvel_mean            =   2.6803599019490E-06
(PID.TID 0000.0001) %MON dynstat_vvel_sd              =   1.9479346676231E-04
(PID.TID 0000.0001) %MON dynstat_vvel_del2            =   4.3230295616186E-08
(PID.TID 0000.0001) %MON dynstat_wvel_max             =   1.9173429313780E-07
(PID.TID 0000.0001) %MON dynstat_wvel_min             =  -1.6315301410667E-07
(PID.TID 0000.0001) %MON dynstat_wvel_mean            =  -6.1636237201393E-24
(PID.TID 0000.0001) %MON dynstat_wvel_sd              =   5.7945968683781E-08
(PID.TID 0000.0001) %MON dynstat_wvel_del2            =   2.7424206685134E-11
(PID.TID 0000.0001) %MON dynstat_theta_max            =   2.0001233150542E+01
(PID.TID 0000.0001) %MON dynstat_theta_min            =   1.9998985349307E+01
(PID.TID 0000.0001) %MON dynstat_theta_mean           =   2.0000638808650E+01
(PID.TID 0000.0001) %MON dynstat_theta_sd             =   2.2506059956115E-04
(PID.TID 0000.0001) %MON dynstat_theta_del2           =   9.7430926553143E-07
(PID.TID 0000.0001) %MON dynstat_salt_max             =   3.5000053610415E+01
(PID.TID 0000.0001) %MON dynstat_salt_min             =   3.4990071854079E+01
(PID.TID 0000.0001) %MON dynstat_salt_mean            =   3.4999855287847E+01
(PID.TID 0000.0001) %MON dynstat_salt_sd              =   9.3962744301560E-04
(PID.TID 0000.0001) %MON dynstat_salt_del2            =   1.3272951113840E-06
(PID.TID 0000.0001) %MON forcing_qnet_max             =   2.0679298801448E+02
(PID.TID 0000.0001) %MON forcing_qnet_min             =  -2.2869122464038E+02
(PID.TID 0000.0001) %MON forcing_qnet_mean            =  -1.1773751442606E+02
(PID.TID 0000.0001) %MON forcing_qnet_sd              =   4.8198368301872E+01
(PID.TID 0000.0001) %MON forcing_qnet_del2            =   1.6522416834484E-01
(PID.TID 0000.0001) %MON forcing_qsw_max              =   0.0000000000000E+00
(PID.TID 0000.0001) %MON forcing_qsw_min              =   0.0000000000000E+00
(PID.TID 0000.0001) %MON forcing_qsw_mean             =   0.0000000000000E+00
(PID.TID 0000.0001) %MON forcing_qsw_sd               =   0.0000000000000E+00
(PID.TID 0000.0001) %MON forcing_qsw_del2             =   0.0000000000000E+00
(PID.TID 0000.0001) %MON forcing_empmr_max            =   7.3622507175552E-05
(PID.TID 0000.0001) %MON forcing_empmr_min            =  -1.3039859231506E-02
(PID.TID 0000.0001) %MON forcing_empmr_mean           =  -1.8892409485380E-04
(PID.TID 0000.0001) %MON forcing_empmr_sd             =   1.2346965271432E-03
(PID.TID 0000.0001) %MON forcing_empmr_del2           =   2.1216597540420E-06
(PID.TID 0000.0001) %MON forcing_fu_max               =   3.7438500517571E-02
(PID.TID 0000.0001) %MON forcing_fu_min               =  -4.4154175067614E-02
(PID.TID 0000.0001) %MON forcing_fu_mean              =   4.9638003032234E-03
(PID.TID 0000.0001) %MON forcing_fu_sd                =   1.9753802550456E-02
(PID.TID 0000.0001) %MON forcing_fu_del2              =   2.6086198566840E-05
(PID.TID 0000.0001) %MON forcing_fv_max               =   2.7219291542241E-06
(PID.TID 0000.0001) %MON forcing_fv_min               =  -3.5662841309546E-06
(PID.TID 0000.0001) %MON forcing_fv_mean              =   1.9250232522101E-08
(PID.TID 0000.0001) %MON forcing_fv_sd                =   7.3780821437221E-07
(PID.TID 0000.0001) %MON forcing_fv_del2              =   8.9276127840591E-10
(PID.TID 0000.0001) %MON advcfl_uvel_max              =   3.0264527469812E-05
(PID.TID 0000.0001) %MON advcfl_vvel_max              =   2.9329885879626E-05
(PID.TID 0000.0001) %MON advcfl_wvel_max              =   4.6016230353072E-07
(PID.TID 0000.0001) %MON advcfl_W_hf_max              =   0.0000000000000E+00
(PID.TID 0000.0001) %MON pe_b_mean                    =   4.4396234829678E-09
(PID.TID 0000.0001) %MON ke_max                       =   2.3011759916958E-07
(PID.TID 0000.0001) %MON ke_mean                      =   4.5689992756756E-08
(PID.TID 0000.0001) %MON ke_vol                       =   3.9285959103706E+15
(PID.TID 0000.0001) %MON vort_r_min                   =  -1.9116504402428E-08
(PID.TID 0000.0001) %MON vort_r_max                   =   3.1587944145672E-08
(PID.TID 0000.0001) %MON vort_a_mean                  =   9.0315070673762E-05
(PID.TID 0000.0001) %MON vort_a_sd                    =   1.0358255821983E-05
(PID.TID 0000.0001) %MON vort_p_mean                  =   9.3807280711835E-05
(PID.TID 0000.0001) %MON vort_p_sd                    =   3.1546715268660E-05
(PID.TID 0000.0001) %MON surfExpan_theta_mean         =   1.1659390258252E-12
(PID.TID 0000.0001) %MON surfExpan_salt_mean          =  -1.8554604553610E-11
(PID.TID 0000.0001) // =======================================================
(PID.TID 0000.0001) // End MONITOR dynamic field statistics
(PID.TID 0000.0001) // =======================================================
 cg2d: Sum(rhs),rhsMax =   2.19407510471115E-06  5.77858467905950E-03
 cg2d: Sum(rhs),rhsMax =   1.80432760110705E-06  6.12951329971398E-03
 cg2d: Sum(rhs),rhsMax =   1.53286180104573E-06  6.48377611354825E-03
(PID.TID 0000.0001)      cg2d_init_res =   3.71315340534941E-01
(PID.TID 0000.0001)      cg2d_iters(min,last) =      -1      60
(PID.TID 0000.0001)      cg2d_last_res =   8.56870963898616E-08
(PID.TID 0000.0001) // =======================================================
(PID.TID 0000.0001) // Begin MONITOR dynamic field statistics
(PID.TID 0000.0001) // =======================================================
(PID.TID 0000.0001) %MON time_tsnumber                =                    21
(PID.TID 0000.0001) %MON time_secondsf                =   2.5200000000000E+04
(PID.TID 0000.0001) %MON dynstat_eta_max              =   4.4110728708765E-03
(PID.TID 0000.0001) %MON dynstat_eta_min              =  -3.2964517661010E-03
(PID.TID 0000.0001) %MON dynstat_eta_mean             =  -5.7997724766536E-12
(PID.TID 0000.0001) %MON dynstat_eta_sd               =   9.9919096626351E-04
(PID.TID 0000.0001) %MON dynstat_eta_del2             =   5.6281932678329E-07
(PID.TID 0000.0001) %MON dynstat_uvel_max             =   5.3369908677162E-04
(PID.TID 0000.0001) %MON dynstat_uvel_min             =  -7.2367778506693E-04
(PID.TID 0000.0001) %MON dynstat_uvel_mean            =  -1.9243609838647E-05
(PID.TID 0000.0001) %MON dynstat_uvel_sd              =   2.7496860835568E-04
(PID.TID 0000.0001) %MON dynstat_uvel_del2            =   6.9631900083673E-07
(PID.TID 0000.0001) %MON dynstat_vvel_max             =   7.6621284083804E-04
(PID.TID 0000.0001) %MON dynstat_vvel_min             =  -6.4020391263364E-04
(PID.TID 0000.0001) %MON dynstat_vvel_mean            =  -1.3003944296492E-06
(PID.TID 0000.0001) %MON dynstat_vvel_sd              =   2.2040087151051E-04
(PID.TID 0000.0001) %MON dynstat_vvel_del2            =   5.0844886132940E-08
(PID.TID 0000.0001) %MON dynstat_wvel_max             =   2.0742861646972E-07
(PID.TID 0000.0001) %MON dynstat_wvel_min             =  -1.6013512565196E-07
(PID.TID 0000.0001) %MON dynstat_wvel_mean            =  -2.8447494092950E-24
(PID.TID 0000.0001) %MON dynstat_wvel_sd              =   6.0467260368153E-08
(PID.TID 0000.0001) %MON dynstat_wvel_del2            =   2.9921197212541E-11
(PID.TID 0000.0001) %MON dynstat_theta_max            =   2.0001435300971E+01
(PID.TID 0000.0001) %MON dynstat_theta_min            =   1.9998798961544E+01
(PID.TID 0000.0001) %MON dynstat_theta_mean           =   2.0000744732536E+01
(PID.TID 0000.0001) %MON dynstat_theta_sd             =   2.6819365016117E-04
(PID.TID 0000.0001) %MON dynstat_theta_del2           =   1.1098748849934E-06
(PID.TID 0000.0001) %MON dynstat_salt_max             =   3.5000062887468E+01
(PID.TID 0000.0001) %MON dynstat_salt_min             =   3.4988443258100E+01
(PID.TID 0000.0001) %MON dynstat_salt_mean            =   3.4999831599889E+01
(PID.TID 0000.0001) %MON dynstat_salt_sd              =   1.0937188473489E-03
(PID.TID 0000.0001) %MON dynstat_salt_del2            =   1.5316062008205E-06
(PID.TID 0000.0001) %MON forcing_qnet_max             =   2.0677678545848E+02
(PID.TID 0000.0001) %MON forcing_qnet_min             =  -2.2867185494612E+02
(PID.TID 0000.0001) %MON forcing_qnet_mean            =  -1.1737152406135E+02
(PID.TID 0000.0001) %MON forcing_qnet_sd              =   4.8914807779441E+01
(PID.TID 0000.0001) %MON forcing_qnet_del2            =   1.5659029084686E-01
(PID.TID 0000.0001) %MON forcing_qsw_max              =   0.0000000000000E+00
(PID.TID 0000.0001) %MON forcing_qsw_min              =   0.0000000000000E+00
(PID.TID 0000.0001) %MON forcing_qsw_mean             =   0.0000000000000E+00
(PID.TID 0000.0001) %MON forcing_qsw_sd               =   0.0000000000000E+00
(PID.TID 0000.0001) %MON forcing_qsw_del2             =   0.0000000000000E+00
(PID.TID 0000.0001) %MON forcing_empmr_max            =   7.3619125434209E-05
(PID.TID 0000.0001) %MON forcing_empmr_min            =  -1.3014574205506E-02
(PID.TID 0000.0001) %MON forcing_empmr_mean           =  -1.8781328097862E-04
(PID.TID 0000.0001) %MON forcing_empmr_sd             =   1.2301594470853E-03
(PID.TID 0000.0001) %MON forcing_empmr_del2           =   2.1541107758086E-06
(PID.TID 0000.0001) %MON forcing_fu_max               =   3.7438623549628E-02
(PID.TID 0000.0001) %MON forcing_fu_min               =  -4.4153858716446E-02
(PID.TID 0000.0001) %MON forcing_fu_mean              =   5.0076362475284E-03
(PID.TID 0000.0001) %MON forcing_fu_sd                =   1.9746861582813E-02
(PID.TID 0000.0001) %MON forcing_fu_del2              =   2.4514227462843E-05
(PID.TID 0000.0001) %MON forcing_fv_max               =   3.2061221471682E-06
(PID.TID 0000.0001) %MON forcing_fv_min               =  -4.0386685157181E-06
(PID.TID 0000.0001) %MON forcing_fv_mean              =   3.9824289105997E-08
(PID.TID 0000.0001) %MON forcing_fv_sd                =   8.4955972069501E-07
(PID.TID 0000.0001) %MON forcing_fv_del2              =   1.0339763247671E-09
(PID.TID 0000.0001) %MON advcfl_uvel_max              =   3.6595247922813E-05
(PID.TID 0000.0001) %MON advcfl_vvel_max              =   3.3080636977393E-05
(PID.TID 0000.0001) %MON advcfl_wvel_max              =   4.9782867952732E-07
(PID.TID 0000.0001) %MON advcfl_W_hf_max              =   0.0000000000000E+00
(PID.TID 0000.0001) %MON pe_b_mean                    =   4.8970665895421E-09
(PID.TID 0000.0001) %MON ke_max                       =   2.9251553704880E-07
(PID.TID 0000.0001) %MON ke_mean                      =   6.1380893566678E-08
(PID.TID 0000.0001) %MON ke_vol                       =   3.9285959103706E+15
(PID.TID 0000.0001) %MON vort_r_min                   =  -2.3250006487295E-08
(PID.TID 0000.0001) %MON vort_r_max                   =   3.5600587608343E-08
(PID.TID 0000.0001) %MON vort_a_mean                  =   9.0315070673762E-05
(PID.TID 0000.0001) %MON vort_a_sd                    =   1.0358235854553E-05
(PID.TID 0000.0001) %MON vort_p_mean                  =   9.3807280711835E-05
(PID.TID 0000.0001) %MON vort_p_sd                    =   3.1547188278480E-05
(PID.TID 0000.0001) %MON surfExpan_theta_mean         =   3.4350847279086E-12
(PID.TID 0000.0001) %MON surfExpan_salt_mean          =  -2.4612208546488E-11
(PID.TID 0000.0001) // =======================================================
(PID.TID 0000.0001) // End MONITOR dynamic field statistics
(PID.TID 0000.0001) // =======================================================
 cg2d: Sum(rhs),rhsMax =   1.34714012300918E-06  6.84151602664715E-03
 cg2d: Sum(rhs),rhsMax =   1.19472071236082E-06  7.20286569120444E-03
 cg2d: Sum(rhs),rhsMax =   1.03889498584420E-06  7.56739016576217E-03
(PID.TID 0000.0001)      cg2d_init_res =   3.05884989628459E-01
(PID.TID 0000.0001)      cg2d_iters(min,last) =      -1      59
(PID.TID 0000.0001)      cg2d_last_res =   8.82790611092698E-08
(PID.TID 0000.0001) // =======================================================
(PID.TID 0000.0001) // Begin MONITOR dynamic field statistics
(PID.TID 0000.0001) // =======================================================
(PID.TID 0000.0001) %MON time_tsnumber                =                    24
(PID.TID 0000.0001) %MON time_secondsf                =   2.8800000000000E+04
(PID.TID 0000.0001) %MON dynstat_eta_max              =   5.1708063704143E-03
(PID.TID 0000.0001) %MON dynstat_eta_min              =  -3.2384878964388E-03
(PID.TID 0000.0001) %MON dynstat_eta_mean             =  -4.5280506935992E-12
(PID.TID 0000.0001) %MON dynstat_eta_sd               =   1.0769706611820E-03
(PID.TID 0000.0001) %MON dynstat_eta_del2             =   6.4273728030794E-07
(PID.TID 0000.0001) %MON dynstat_uvel_max             =   6.0190399734332E-04
(PID.TID 0000.0001) %MON dynstat_uvel_min             =  -8.5056441646583E-04
(PID.TID 0000.0001) %MON dynstat_uvel_mean            =  -2.9765687564847E-05
(PID.TID 0000.0001) %MON dynstat_uvel_sd              =   3.1740037860061E-04
(PID.TID 0000.0001) %MON dynstat_uvel_del2            =   7.7231615309778E-07
(PID.TID 0000.0001) %MON dynstat_vvel_max             =   8.4434442324871E-04
(PID.TID 0000.0001) %MON dynstat_vvel_min             =  -7.1571620760459E-04
(PID.TID 0000.0001) %MON dynstat_vvel_mean            =  -7.3781359725974E-06
(PID.TID 0000.0001) %MON dynstat_vvel_sd              =   2.4333652361892E-04
(PID.TID 0000.0001) %MON dynstat_vvel_del2            =   5.8824290378982E-08
(PID.TID 0000.0001) %MON dynstat_wvel_max             =   2.1428797410359E-07
(PID.TID 0000.0001) %MON dynstat_wvel_min             =  -2.0516016396880E-07
(PID.TID 0000.0001) %MON dynstat_wvel_mean            =   9.4824980309835E-25
(PID.TID 0000.0001) %MON dynstat_wvel_sd              =   5.7465283406811E-08
(PID.TID 0000.0001) %MON dynstat_wvel_del2            =   2.9849239470260E-11
(PID.TID 0000.0001) %MON dynstat_theta_max            =   2.0001636391510E+01
(PID.TID 0000.0001) %MON dynstat_theta_min            =   1.9998612587755E+01
(PID.TID 0000.0001) %MON dynstat_theta_mean           =   2.0000850331878E+01
(PID.TID 0000.0001) %MON dynstat_theta_sd             =   3.1186263398425E-04
(PID.TID 0000.0001) %MON dynstat_theta_del2           =   1.2376272358332E-06
(PID.TID 0000.0001) %MON dynstat_salt_max             =   3.5000072164141E+01
(PID.TID 0000.0001) %MON dynstat_salt_min             =   3.4986825558428E+01
(PID.TID 0000.0001) %MON dynstat_salt_mean            =   3.4999808065166E+01
(PID.TID 0000.0001) %MON dynstat_salt_sd              =   1.2469652998905E-03
(PID.TID 0000.0001) %MON dynstat_salt_del2            =   1.7432871926454E-06
(PID.TID 0000.0001) %MON forcing_qnet_max             =   2.0676775252974E+02
(PID.TID 0000.0001) %MON forcing_qnet_min             =  -2.2866639505760E+02
(PID.TID 0000.0001) %MON forcing_qnet_mean            =  -1.1701531356614E+02
(PID.TID 0000.0001) %MON forcing_qnet_sd              =   4.9520053067879E+01
(PID.TID 0000.0001) %MON forcing_qnet_del2            =   1.4870687716267E-01
(PID.TID 0000.0001) %MON forcing_qsw_max              =   0.0000000000000E+00
(PID.TID 0000.0001) %MON forcing_qsw_min              =   0.0000000000000E+00
(PID.TID 0000.0001) %MON forcing_qsw_mean             =   0.0000000000000E+00
(PID.TID 0000.0001) %MON forcing_qsw_sd               =   0.0000000000000E+00
(PID.TID 0000.0001) %MON forcing_qsw_del2             =   0.0000000000000E+00
(PID.TID 0000.0001) %MON forcing_empmr_max            =   7.3617070769860E-05
(PID.TID 0000.0001) %MON forcing_empmr_min            =  -1.2987661023140E-02
(PID.TID 0000.0001) %MON forcing_empmr_mean           =  -1.8667046332984E-04
(PID.TID 0000.0001) %MON forcing_empmr_sd             =   1.2257893144990E-03
(PID.TID 0000.0001) %MON forcing_empmr_del2           =   2.2346489165754E-06
(PID.TID 0000.0001) %MON forcing_fu_max               =   3.7438635605164E-02
(PID.TID 0000.0001) %MON forcing_fu_min               =  -4.4153635110946E-02
(PID.TID 0000.0001) %MON forcing_fu_mean              =   5.0482414923806E-03
(PID.TID 0000.0001) %MON forcing_fu_sd                =   1.9742203182187E-02
(PID.TID 0000.0001) %MON forcing_fu_del2              =   2.3199501416225E-05
(PID.TID 0000.0001) %MON forcing_fv_max               =   3.6163039365544E-06
(PID.TID 0000.0001) %MON forcing_fv_min               =  -4.4537662840930E-06
(PID.TID 0000.0001) %MON forcing_fv_mean              =   6.3919883503056E-08
(PID.TID 0000.0001) %MON forcing_fv_sd                =   9.4445671092154E-07
(PID.TID 0000.0001) %MON forcing_fv_del2              =   1.1398259610837E-09
(PID.TID 0000.0001) %MON advcfl_uvel_max              =   4.3011705398710E-05
(PID.TID 0000.0001) %MON advcfl_vvel_max              =   3.6453906617941E-05
(PID.TID 0000.0001) %MON advcfl_wvel_max              =   5.1429113784861E-07
(PID.TID 0000.0001) %MON advcfl_W_hf_max              =   0.0000000000000E+00
(PID.TID 0000.0001) %MON pe_b_mean                    =   5.6891417737544E-09
(PID.TID 0000.0001) %MON ke_max                       =   3.6175305284962E-07
(PID.TID 0000.0001) %MON ke_mean                      =   7.9290397396628E-08
(PID.TID 0000.0001) %MON ke_vol                       =   3.9285959103706E+15
(PID.TID 0000.0001) %MON vort_r_min                   =  -2.6260960088521E-08
(PID.TID 0000.0001) %MON vort_r_max                   =   3.9245107149463E-08
(PID.TID 0000.0001) %MON vort_a_mean                  =   9.0315070673762E-05
(PID.TID 0000.0001) %MON vort_a_sd                    =   1.0358215225504E-05
(PID.TID 0000.0001) %MON vort_p_mean                  =   9.3807280711835E-05
(PID.TID 0000.0001) %MON vort_p_sd                    =   3.1547623377261E-05
(PID.TID 0000.0001) %MON surfExpan_theta_mean         =   6.2551267406519E-12
(PID.TID 0000.0001) %MON surfExpan_salt_mean          =  -2.9855369316962E-11
(PID.TID 0000.0001) // =======================================================
(PID.TID 0000.0001) // End MONITOR dynamic field statistics
(PID.TID 0000.0001) // =======================================================
 Computing Diagnostic #    183  CH_TAIR      Counter:      12   Parms: SM      L1      
 Computing Diagnostic #    185  CH_QAIR      Counter:      12   Parms: SM      L1      
 Computing Diagnostic #    184  CH_QNET      Counter:      12   Parms: SM      L1      
 Computing Diagnostic #    186  CH_EmP       Counter:      12   Parms: SM      L1      
 Computing Diagnostic #    188  CH_Uwind     Counter:      12   Parms: UU      L1      
           Vector  Mate for  CH_Uwind     Diagnostic #    189  CH_Vwind exists 
 Computing Diagnostic #    189  CH_Vwind     Counter:      12   Parms: VV      L1      
           Vector  Mate for  CH_Vwind     Diagnostic #    188  CH_Uwind exists 
(PID.TID 0000.0001) %CHECKPOINT        24 ckptA
(PID.TID 0000.0001)   Seconds in section "ALL                    [THE_MODEL_MAIN]":
(PID.TID 0000.0001)           User time:   16.309999999999999
(PID.TID 0000.0001)         System time:  0.19000000000000000
(PID.TID 0000.0001)     Wall clock time:   53.174092054367065
(PID.TID 0000.0001)          No. starts:           1
(PID.TID 0000.0001)           No. stops:           1
(PID.TID 0000.0001)   Seconds in section "INITIALISE_FIXED       [THE_MODEL_MAIN]":
(PID.TID 0000.0001)           User time:  0.47999999999999998
(PID.TID 0000.0001)         System time:  8.99999999999999967E-002
(PID.TID 0000.0001)     Wall clock time:   15.681420087814331
(PID.TID 0000.0001)          No. starts:           1
(PID.TID 0000.0001)           No. stops:           1
(PID.TID 0000.0001)   Seconds in section "THE_MAIN_LOOP          [THE_MODEL_MAIN]":
(PID.TID 0000.0001)           User time:   15.829999999999998
(PID.TID 0000.0001)         System time:  8.99999999999999967E-002
(PID.TID 0000.0001)     Wall clock time:   37.487180948257446
(PID.TID 0000.0001)          No. starts:           1
(PID.TID 0000.0001)           No. stops:           1
(PID.TID 0000.0001)   Seconds in section "INITIALISE_VARIA    [THE_MAIN_LOOP]":
(PID.TID 0000.0001)           User time:  0.16000000000000003
(PID.TID 0000.0001)         System time:  2.99999999999999989E-002
(PID.TID 0000.0001)     Wall clock time:   3.3657968044281006
(PID.TID 0000.0001)          No. starts:           1
(PID.TID 0000.0001)           No. stops:           1
(PID.TID 0000.0001)   Seconds in section "MAIN LOOP           [THE_MAIN_LOOP]":
(PID.TID 0000.0001)           User time:   15.669999999999998
(PID.TID 0000.0001)         System time:  5.99999999999999978E-002
(PID.TID 0000.0001)     Wall clock time:   34.121330022811890
(PID.TID 0000.0001)          No. starts:           1
(PID.TID 0000.0001)           No. stops:           1
(PID.TID 0000.0001)   Seconds in section "FORWARD_STEP        [THE_MAIN_LOOP]":
(PID.TID 0000.0001)           User time:   15.669999999999998
(PID.TID 0000.0001)         System time:  5.99999999999999978E-002
(PID.TID 0000.0001)     Wall clock time:   34.121095418930054
(PID.TID 0000.0001)          No. starts:          24
(PID.TID 0000.0001)           No. stops:          24
(PID.TID 0000.0001)   Seconds in section "DO_STATEVARS_DIAGS  [FORWARD_STEP]":
(PID.TID 0000.0001)           User time:   0.0000000000000000
(PID.TID 0000.0001)         System time:   0.0000000000000000
(PID.TID 0000.0001)     Wall clock time:  4.60481643676757813E-003
(PID.TID 0000.0001)          No. starts:          72
(PID.TID 0000.0001)           No. stops:          72
(PID.TID 0000.0001)   Seconds in section "LOAD_FIELDS_DRIVER  [FORWARD_STEP]":
(PID.TID 0000.0001)           User time:  5.00000000000007105E-002
(PID.TID 0000.0001)         System time:   0.0000000000000000
(PID.TID 0000.0001)     Wall clock time:  3.48739624023437500E-002
(PID.TID 0000.0001)          No. starts:          24
(PID.TID 0000.0001)           No. stops:          24
(PID.TID 0000.0001)   Seconds in section "CHEAPAML      [FORWARD_STEP]":
(PID.TID 0000.0001)           User time:   6.3900000000000041
(PID.TID 0000.0001)         System time:   0.0000000000000000
(PID.TID 0000.0001)     Wall clock time:   6.4278550148010254
(PID.TID 0000.0001)          No. starts:          24
(PID.TID 0000.0001)           No. stops:          24
(PID.TID 0000.0001)   Seconds in section "DO_ATMOSPHERIC_PHYS [FORWARD_STEP]":
(PID.TID 0000.0001)           User time:   0.0000000000000000
(PID.TID 0000.0001)         System time:   0.0000000000000000
(PID.TID 0000.0001)     Wall clock time:  2.29597091674804688E-004
(PID.TID 0000.0001)          No. starts:          24
(PID.TID 0000.0001)           No. stops:          24
(PID.TID 0000.0001)   Seconds in section "DO_OCEANIC_PHYS     [FORWARD_STEP]":
(PID.TID 0000.0001)           User time:  8.00000000000018474E-002
(PID.TID 0000.0001)         System time:   0.0000000000000000
(PID.TID 0000.0001)     Wall clock time:  8.10136795043945313E-002
(PID.TID 0000.0001)          No. starts:          24
(PID.TID 0000.0001)           No. stops:          24
(PID.TID 0000.0001)   Seconds in section "DYNAMICS            [FORWARD_STEP]":
(PID.TID 0000.0001)           User time:   1.1199999999999974
(PID.TID 0000.0001)         System time:   0.0000000000000000
(PID.TID 0000.0001)     Wall clock time:   1.1337532997131348
(PID.TID 0000.0001)          No. starts:          24
(PID.TID 0000.0001)           No. stops:          24
(PID.TID 0000.0001)   Seconds in section "SOLVE_FOR_PRESSURE  [FORWARD_STEP]":
(PID.TID 0000.0001)           User time:   6.2899999999999903
(PID.TID 0000.0001)         System time:   0.0000000000000000
(PID.TID 0000.0001)     Wall clock time:   6.2830464839935303
(PID.TID 0000.0001)          No. starts:          24
(PID.TID 0000.0001)           No. stops:          24
(PID.TID 0000.0001)   Seconds in section "MOM_CORRECTION_STEP [FORWARD_STEP]":
(PID.TID 0000.0001)           User time:  3.99999999999991473E-002
(PID.TID 0000.0001)         System time:   0.0000000000000000
(PID.TID 0000.0001)     Wall clock time:  6.76445960998535156E-002
(PID.TID 0000.0001)          No. starts:          24
(PID.TID 0000.0001)           No. stops:          24
(PID.TID 0000.0001)   Seconds in section "INTEGR_CONTINUITY   [FORWARD_STEP]":
(PID.TID 0000.0001)           User time:  3.99999999999991473E-002
(PID.TID 0000.0001)         System time:   0.0000000000000000
(PID.TID 0000.0001)     Wall clock time:  4.28862571716308594E-002
(PID.TID 0000.0001)          No. starts:          24
(PID.TID 0000.0001)           No. stops:          24
(PID.TID 0000.0001)   Seconds in section "BLOCKING_EXCHANGES  [FORWARD_STEP]":
(PID.TID 0000.0001)           User time:  3.00000000000011369E-002
(PID.TID 0000.0001)         System time:   0.0000000000000000
(PID.TID 0000.0001)     Wall clock time:  2.13472843170166016E-002
(PID.TID 0000.0001)          No. starts:          48
(PID.TID 0000.0001)           No. stops:          48
(PID.TID 0000.0001)   Seconds in section "THERMODYNAMICS      [FORWARD_STEP]":
(PID.TID 0000.0001)           User time:  0.81000000000000227
(PID.TID 0000.0001)         System time:   0.0000000000000000
(PID.TID 0000.0001)     Wall clock time:  0.79168033599853516
(PID.TID 0000.0001)          No. starts:          24
(PID.TID 0000.0001)           No. stops:          24
(PID.TID 0000.0001)   Seconds in section "TRC_CORRECTION_STEP [FORWARD_STEP]":
(PID.TID 0000.0001)           User time:  1.99999999999995737E-002
(PID.TID 0000.0001)         System time:   0.0000000000000000
(PID.TID 0000.0001)     Wall clock time:  1.56733989715576172E-002
(PID.TID 0000.0001)          No. starts:          24
(PID.TID 0000.0001)           No. stops:          24
(PID.TID 0000.0001)   Seconds in section "MONITOR             [FORWARD_STEP]":
(PID.TID 0000.0001)           User time:  0.22999999999999687
(PID.TID 0000.0001)         System time:   0.0000000000000000
(PID.TID 0000.0001)     Wall clock time:  0.22759270668029785
(PID.TID 0000.0001)          No. starts:          24
(PID.TID 0000.0001)           No. stops:          24
(PID.TID 0000.0001)   Seconds in section "DO_THE_MODEL_IO     [FORWARD_STEP]":
(PID.TID 0000.0001)           User time:  0.56000000000000227
(PID.TID 0000.0001)         System time:  5.99999999999999978E-002
(PID.TID 0000.0001)     Wall clock time:   18.967108011245728
(PID.TID 0000.0001)          No. starts:          24
(PID.TID 0000.0001)           No. stops:          24
(PID.TID 0000.0001)   Seconds in section "DO_WRITE_PICKUP     [FORWARD_STEP]":
(PID.TID 0000.0001)           User time:  9.99999999999801048E-003
(PID.TID 0000.0001)         System time:   0.0000000000000000
(PID.TID 0000.0001)     Wall clock time:  1.72715187072753906E-002
(PID.TID 0000.0001)          No. starts:          24
(PID.TID 0000.0001)           No. stops:          24
(PID.TID 0000.0001) // ======================================================
(PID.TID 0000.0001) // Tile <-> Tile communication statistics
(PID.TID 0000.0001) // ======================================================
(PID.TID 0000.0001) // o Tile number: 000001
(PID.TID 0000.0001) //         No. X exchanges =              0
(PID.TID 0000.0001) //            Max. X spins =              0
(PID.TID 0000.0001) //            Min. X spins =     1000000000
(PID.TID 0000.0001) //          Total. X spins =              0
(PID.TID 0000.0001) //            Avg. X spins =       0.00E+00
(PID.TID 0000.0001) //         No. Y exchanges =              0
(PID.TID 0000.0001) //            Max. Y spins =              0
(PID.TID 0000.0001) //            Min. Y spins =     1000000000
(PID.TID 0000.0001) //          Total. Y spins =              0
(PID.TID 0000.0001) //            Avg. Y spins =       0.00E+00
(PID.TID 0000.0001) // o Tile number: 000002
(PID.TID 0000.0001) //         No. X exchanges =              0
(PID.TID 0000.0001) //            Max. X spins =              0
(PID.TID 0000.0001) //            Min. X spins =     1000000000
(PID.TID 0000.0001) //          Total. X spins =              0
(PID.TID 0000.0001) //            Avg. X spins =       0.00E+00
(PID.TID 0000.0001) //         No. Y exchanges =              0
(PID.TID 0000.0001) //            Max. Y spins =              0
(PID.TID 0000.0001) //            Min. Y spins =     1000000000
(PID.TID 0000.0001) //          Total. Y spins =              0
(PID.TID 0000.0001) //            Avg. Y spins =       0.00E+00
(PID.TID 0000.0001) // o Tile number: 000003
(PID.TID 0000.0001) //         No. X exchanges =              0
(PID.TID 0000.0001) //            Max. X spins =              0
(PID.TID 0000.0001) //            Min. X spins =     1000000000
(PID.TID 0000.0001) //          Total. X spins =              0
(PID.TID 0000.0001) //            Avg. X spins =       0.00E+00
(PID.TID 0000.0001) //         No. Y exchanges =              0
(PID.TID 0000.0001) //            Max. Y spins =              0
(PID.TID 0000.0001) //            Min. Y spins =     1000000000
(PID.TID 0000.0001) //          Total. Y spins =              0
(PID.TID 0000.0001) //            Avg. Y spins =       0.00E+00
(PID.TID 0000.0001) // o Tile number: 000004
(PID.TID 0000.0001) //         No. X exchanges =              0
(PID.TID 0000.0001) //            Max. X spins =              0
(PID.TID 0000.0001) //            Min. X spins =     1000000000
(PID.TID 0000.0001) //          Total. X spins =              0
(PID.TID 0000.0001) //            Avg. X spins =       0.00E+00
(PID.TID 0000.0001) //         No. Y exchanges =              0
(PID.TID 0000.0001) //            Max. Y spins =              0
(PID.TID 0000.0001) //            Min. Y spins =     1000000000
(PID.TID 0000.0001) //          Total. Y spins =              0
(PID.TID 0000.0001) //            Avg. Y spins =       0.00E+00
(PID.TID 0000.0001) // o Tile number: 000005
(PID.TID 0000.0001) //         No. X exchanges =              0
(PID.TID 0000.0001) //            Max. X spins =              0
(PID.TID 0000.0001) //            Min. X spins =     1000000000
(PID.TID 0000.0001) //          Total. X spins =              0
(PID.TID 0000.0001) //            Avg. X spins =       0.00E+00
(PID.TID 0000.0001) //         No. Y exchanges =              0
(PID.TID 0000.0001) //            Max. Y spins =              0
(PID.TID 0000.0001) //            Min. Y spins =     1000000000
(PID.TID 0000.0001) //          Total. Y spins =              0
(PID.TID 0000.0001) //            Avg. Y spins =       0.00E+00
(PID.TID 0000.0001) // o Tile number: 000006
(PID.TID 0000.0001) //         No. X exchanges =              0
(PID.TID 0000.0001) //            Max. X spins =              0
(PID.TID 0000.0001) //            Min. X spins =     1000000000
(PID.TID 0000.0001) //          Total. X spins =              0
(PID.TID 0000.0001) //            Avg. X spins =       0.00E+00
(PID.TID 0000.0001) //         No. Y exchanges =              0
(PID.TID 0000.0001) //            Max. Y spins =              0
(PID.TID 0000.0001) //            Min. Y spins =     1000000000
(PID.TID 0000.0001) //          Total. Y spins =              0
(PID.TID 0000.0001) //            Avg. Y spins =       0.00E+00
(PID.TID 0000.0001) // o Tile number: 000007
(PID.TID 0000.0001) //         No. X exchanges =              0
(PID.TID 0000.0001) //            Max. X spins =              0
(PID.TID 0000.0001) //            Min. X spins =     1000000000
(PID.TID 0000.0001) //          Total. X spins =              0
(PID.TID 0000.0001) //            Avg. X spins =       0.00E+00
(PID.TID 0000.0001) //         No. Y exchanges =              0
(PID.TID 0000.0001) //            Max. Y spins =              0
(PID.TID 0000.0001) //            Min. Y spins =     1000000000
(PID.TID 0000.0001) //          Total. Y spins =              0
(PID.TID 0000.0001) //            Avg. Y spins =       0.00E+00
(PID.TID 0000.0001) // o Tile number: 000008
(PID.TID 0000.0001) //         No. X exchanges =              0
(PID.TID 0000.0001) //            Max. X spins =              0
(PID.TID 0000.0001) //            Min. X spins =     1000000000
(PID.TID 0000.0001) //          Total. X spins =              0
(PID.TID 0000.0001) //            Avg. X spins =       0.00E+00
(PID.TID 0000.0001) //         No. Y exchanges =              0
(PID.TID 0000.0001) //            Max. Y spins =              0
(PID.TID 0000.0001) //            Min. Y spins =     1000000000
(PID.TID 0000.0001) //          Total. Y spins =              0
(PID.TID 0000.0001) //            Avg. Y spins =       0.00E+00
(PID.TID 0000.0001) // o Thread number: 000001
(PID.TID 0000.0001) //            No. barriers =          11194
(PID.TID 0000.0001) //      Max. barrier spins =              1
(PID.TID 0000.0001) //      Min. barrier spins =              1
(PID.TID 0000.0001) //     Total barrier spins =          11194
(PID.TID 0000.0001) //      Avg. barrier spins =       1.00E+00
PROGRAM MAIN: Execution ended Normally
