(PID.TID 0000.0001) 
(PID.TID 0000.0001) // ======================================================
(PID.TID 0000.0001) //                      MITgcm UV
(PID.TID 0000.0001) //                      =========
(PID.TID 0000.0001) // ======================================================
(PID.TID 0000.0001) // execution environment starting up...
(PID.TID 0000.0001) 
(PID.TID 0000.0001) // MITgcmUV version:  checkpoint65
(PID.TID 0000.0001) // Build user:        jmc
(PID.TID 0000.0001) // Build host:        baudelaire
(PID.TID 0000.0001) // Build date:        Thu Jul 24 11:53:51 EDT 2014
(PID.TID 0000.0001) 
(PID.TID 0000.0001) // =======================================================
(PID.TID 0000.0001) // Execution Environment parameter file "eedata"
(PID.TID 0000.0001) // =======================================================
(PID.TID 0000.0001) ># Example "eedata" file
(PID.TID 0000.0001) ># Lines beginning "#" are comments
(PID.TID 0000.0001) ># nTx - No. threads per process in X
(PID.TID 0000.0001) ># nTy - No. threads per process in Y
(PID.TID 0000.0001) > &EEPARMS
(PID.TID 0000.0001) > nTx=1,
(PID.TID 0000.0001) > nTy=1,
(PID.TID 0000.0001) > /
(PID.TID 0000.0001) ># Note: Some systems use & as the
(PID.TID 0000.0001) ># namelist terminator. Other systems
(PID.TID 0000.0001) ># use a / character (as shown here).
(PID.TID 0000.0001) ># BUT some compilers do not understand "/"
(PID.TID 0000.0001) 
(PID.TID 0000.0001) // =======================================================
(PID.TID 0000.0001) // Computational Grid Specification ( see files "SIZE.h" )
(PID.TID 0000.0001) //                                  ( and "eedata"       )
(PID.TID 0000.0001) // =======================================================
(PID.TID 0000.0001)      nPx =    1 ; /* No. processes in X */
(PID.TID 0000.0001)      nPy =    1 ; /* No. processes in Y */
(PID.TID 0000.0001)      nSx =    1 ; /* No. tiles in X per process */
(PID.TID 0000.0001)      nSy =    2 ; /* No. tiles in Y per process */
(PID.TID 0000.0001)      sNx =   90 ; /* Tile size in X */
(PID.TID 0000.0001)      sNy =   20 ; /* Tile size in Y */
(PID.TID 0000.0001)      OLx =    2 ; /* Tile overlap distance in X */
(PID.TID 0000.0001)      OLy =    2 ; /* Tile overlap distance in Y */
(PID.TID 0000.0001)      nTx =    1 ; /* No. threads in X per process */
(PID.TID 0000.0001)      nTy =    1 ; /* No. threads in Y per process */
(PID.TID 0000.0001)       Nr =   15 ; /* No. levels in the vertical   */
(PID.TID 0000.0001)       Nx =   90 ; /* Total domain size in X ( = nPx*nSx*sNx ) */
(PID.TID 0000.0001)       Ny =   40 ; /* Total domain size in Y ( = nPy*nSy*sNy ) */
(PID.TID 0000.0001)   nTiles =    2 ; /* Total no. tiles per process ( = nSx*nSy ) */
(PID.TID 0000.0001)   nProcs =    1 ; /* Total no. processes ( = nPx*nPy ) */
(PID.TID 0000.0001) nThreads =    1 ; /* Total no. threads per process ( = nTx*nTy ) */
(PID.TID 0000.0001) usingMPI =    F ; /* Flag used to control whether MPI is in use */
(PID.TID 0000.0001)                   /*  note: To execute a program with MPI calls */
(PID.TID 0000.0001)                   /*  it must be launched appropriately e.g     */
(PID.TID 0000.0001)                   /*  "mpirun -np 64 ......"                    */
(PID.TID 0000.0001) useCoupler=    F ;/* Flag used to control communications with   */
(PID.TID 0000.0001)                   /*  other model components, through a coupler */
(PID.TID 0000.0001) debugMode =    F ; /* print debug msg. (sequence of S/R calls)  */
(PID.TID 0000.0001) printMapIncludesZeros=    F ; /* print zeros in Std.Output maps */
(PID.TID 0000.0001) maxLengthPrt1D=   65 /* maxLength of 1D array printed to StdOut */
(PID.TID 0000.0001) 
(PID.TID 0000.0001) // ======================================================
(PID.TID 0000.0001) // Mapping of tiles to threads
(PID.TID 0000.0001) // ======================================================
(PID.TID 0000.0001) // -o- Thread   1, tiles (   1:   1,   1:   2)
(PID.TID 0000.0001) 
(PID.TID 0000.0001) // ======================================================
(PID.TID 0000.0001) // Tile <-> Tile connectvity table
(PID.TID 0000.0001) // ======================================================
(PID.TID 0000.0001) // Tile number: 000001 (process no. = 000000)
(PID.TID 0000.0001) //        WEST: Tile = 000001, Process = 000000, Comm = put
(PID.TID 0000.0001) //                bi = 000001, bj = 000001
(PID.TID 0000.0001) //        EAST: Tile = 000001, Process = 000000, Comm = put
(PID.TID 0000.0001) //                bi = 000001, bj = 000001
(PID.TID 0000.0001) //       SOUTH: Tile = 000002, Process = 000000, Comm = put
(PID.TID 0000.0001) //                bi = 000001, bj = 000002
(PID.TID 0000.0001) //       NORTH: Tile = 000002, Process = 000000, Comm = put
(PID.TID 0000.0001) //                bi = 000001, bj = 000002
(PID.TID 0000.0001) // Tile number: 000002 (process no. = 000000)
(PID.TID 0000.0001) //        WEST: Tile = 000002, Process = 000000, Comm = put
(PID.TID 0000.0001) //                bi = 000001, bj = 000002
(PID.TID 0000.0001) //        EAST: Tile = 000002, Process = 000000, Comm = put
(PID.TID 0000.0001) //                bi = 000001, bj = 000002
(PID.TID 0000.0001) //       SOUTH: Tile = 000001, Process = 000000, Comm = put
(PID.TID 0000.0001) //                bi = 000001, bj = 000001
(PID.TID 0000.0001) //       NORTH: Tile = 000001, Process = 000000, Comm = put
(PID.TID 0000.0001) //                bi = 000001, bj = 000001
(PID.TID 0000.0001) 
(PID.TID 0000.0001)  INI_PARMS: opening model parameter file "data"
(PID.TID 0000.0001)  OPEN_COPY_DATA_FILE: opening file data
(PID.TID 0000.0001) // =======================================================
(PID.TID 0000.0001) // Parameter file "data"
(PID.TID 0000.0001) // =======================================================
(PID.TID 0000.0001) ># ====================
(PID.TID 0000.0001) ># | Model parameters |
(PID.TID 0000.0001) ># ====================
(PID.TID 0000.0001) >#
(PID.TID 0000.0001) ># Continuous equation parameters
(PID.TID 0000.0001) > &PARM01
(PID.TID 0000.0001) > tRef = 15*20.,
(PID.TID 0000.0001) > sRef = 15*35.,
(PID.TID 0000.0001) > viscAh =3.E5,
(PID.TID 0000.0001) > no_slip_sides=.TRUE.,
(PID.TID 0000.0001) > viscAr =1.721611620915750e5,
(PID.TID 0000.0001) >#viscAz =1.67E-3,
(PID.TID 0000.0001) > no_slip_bottom=.FALSE.,
(PID.TID 0000.0001) > diffKhT=1.E3,
(PID.TID 0000.0001) > diffKrT=5.154525811125000e3,
(PID.TID 0000.0001) >#diffKzT=0.5E-4,
(PID.TID 0000.0001) > diffKhS=1.E3,
(PID.TID 0000.0001) > diffKrS=5.154525811125000e3,
(PID.TID 0000.0001) >#diffKzS=0.5E-4,
(PID.TID 0000.0001) > implicitDiffusion=.TRUE.,
(PID.TID 0000.0001) > ivdc_kappa=1.030905162225000e9,
(PID.TID 0000.0001) >#ivdc_kappa=10.0,
(PID.TID 0000.0001) > gravity=9.81,
(PID.TID 0000.0001) > rhoConst=1035.,
(PID.TID 0000.0001) > rhoConstFresh=1000.,
(PID.TID 0000.0001) > buoyancyRelation='OCEANICP',
(PID.TID 0000.0001) > integr_GeoPot=1,
(PID.TID 0000.0001) > eosType='JMD95P',
(PID.TID 0000.0001) > useNHMTerms=.TRUE.,
(PID.TID 0000.0001) > implicitFreeSurface=.TRUE.,
(PID.TID 0000.0001) > exactConserv=.TRUE.,
(PID.TID 0000.0001) > nonlinFreeSurf=4,
(PID.TID 0000.0001) > hFacInf=0.2,
(PID.TID 0000.0001) > hFacSup=2.0,
(PID.TID 0000.0001) >#- to check that it has no impact:
(PID.TID 0000.0001) > doResetHFactors=.TRUE.,
(PID.TID 0000.0001) >#useRealFreshWaterFlux=.TRUE.,
(PID.TID 0000.0001) > readBinaryPrec=64,
(PID.TID 0000.0001) > writeBinaryPrec=64,
(PID.TID 0000.0001) > cosPower=0.5,
(PID.TID 0000.0001) > /
(PID.TID 0000.0001) >
(PID.TID 0000.0001) ># Elliptic solver parameters
(PID.TID 0000.0001) > &PARM02
(PID.TID 0000.0001) > cg2dMaxIters=200,
(PID.TID 0000.0001) > cg2dTargetResidual=1.E-9,
(PID.TID 0000.0001) > /
(PID.TID 0000.0001) >
(PID.TID 0000.0001) ># Time stepping parameters
(PID.TID 0000.0001) > &PARM03
(PID.TID 0000.0001) > startTime =           0.,
(PID.TID 0000.0001) > endTime   =     3456000.,
(PID.TID 0000.0001) ># after 100 years of intergration, one gets a reasonable flow field
(PID.TID 0000.0001) >#endTime   = 3110400000.,
(PID.TID 0000.0001) > deltaTMom      =   1200.0,
(PID.TID 0000.0001) > deltaTtracer   = 172800.0,
(PID.TID 0000.0001) > deltaTFreeSurf = 172800.0,
(PID.TID 0000.0001) > deltaTClock    = 172800.0,
(PID.TID 0000.0001) > abEps     = 0.1,
(PID.TID 0000.0001) > pChkptFreq  = 3110400000.,
(PID.TID 0000.0001) > dumpFreq    = 3110400000.,
(PID.TID 0000.0001) > taveFreq    = 3110400000.,
(PID.TID 0000.0001) > monitorFreq =   1.,
(PID.TID 0000.0001) > periodicExternalForcing=.TRUE.,
(PID.TID 0000.0001) > externForcingPeriod=2592000.,
(PID.TID 0000.0001) > externForcingCycle=31104000.,
(PID.TID 0000.0001) > tauThetaClimRelax=5184000.0,
(PID.TID 0000.0001) > /
(PID.TID 0000.0001) >
(PID.TID 0000.0001) ># Gridding parameters
(PID.TID 0000.0001) > &PARM04
(PID.TID 0000.0001) > usingSphericalPolarGrid=.TRUE.,
(PID.TID 0000.0001) > dxSpacing=4.,
(PID.TID 0000.0001) > dySpacing=4.,
(PID.TID 0000.0001) > Ro_SeaLevel=53023122.566084,
(PID.TID 0000.0001) > delR=7103300.720021, 6570548.440790, 6041670.010249,
(PID.TID 0000.0001) >      5516436.666057, 4994602.034410, 4475903.435290,
(PID.TID 0000.0001) >      3960063.245801, 3446790.312651, 2935781.405664,
(PID.TID 0000.0001) >      2426722.705046, 1919291.315988, 1413156.804970,
(PID.TID 0000.0001) >      1008846.750166,  705919.025481,  504089.693499,
(PID.TID 0000.0001) > ygOrigin=-80.,
(PID.TID 0000.0001) > /
(PID.TID 0000.0001) >
(PID.TID 0000.0001) ># Input datasets
(PID.TID 0000.0001) > &PARM05
(PID.TID 0000.0001) > bathyFile      ='topog.bin',
(PID.TID 0000.0001) > pLoadFile      ='deltageopotjmd95.bin',
(PID.TID 0000.0001) > hydrogThetaFile='lev_t.bin',
(PID.TID 0000.0001) > hydrogSaltFile ='lev_s.bin',
(PID.TID 0000.0001) > zonalWindFile  ='trenberth_taux.bin',
(PID.TID 0000.0001) > meridWindFile  ='trenberth_tauy.bin',
(PID.TID 0000.0001) > thetaClimFile  ='lev_sst.bin',
(PID.TID 0000.0001) >#saltClimFile   ='lev_sss.bin',
(PID.TID 0000.0001) > surfQFile      ='shi_qnet.bin',
(PID.TID 0000.0001) > EmPmRFile      ='shi_empmr.bin',
(PID.TID 0000.0001) > /
(PID.TID 0000.0001) 
(PID.TID 0000.0001)  INI_PARMS ; starts to read PARM01
(PID.TID 0000.0001)  INI_PARMS ; read PARM01 : OK
(PID.TID 0000.0001)  INI_PARMS ; starts to read PARM02
(PID.TID 0000.0001)  INI_PARMS ; read PARM02 : OK
(PID.TID 0000.0001)  INI_PARMS ; starts to read PARM03
(PID.TID 0000.0001)  INI_PARMS ; read PARM03 : OK
(PID.TID 0000.0001)  INI_PARMS ; starts to read PARM04
(PID.TID 0000.0001)  INI_PARMS ; read PARM04 : OK
(PID.TID 0000.0001)  INI_PARMS ; starts to read PARM05
(PID.TID 0000.0001)  INI_PARMS ; read PARM05 : OK
(PID.TID 0000.0001)  INI_PARMS: finished reading file "data"
(PID.TID 0000.0001)  PACKAGES_BOOT: opening data.pkg
(PID.TID 0000.0001)  OPEN_COPY_DATA_FILE: opening file data.pkg
(PID.TID 0000.0001) // =======================================================
(PID.TID 0000.0001) // Parameter file "data.pkg"
(PID.TID 0000.0001) // =======================================================
(PID.TID 0000.0001) ># Packages
(PID.TID 0000.0001) > &PACKAGES
(PID.TID 0000.0001) > /
(PID.TID 0000.0001) 
(PID.TID 0000.0001)  PACKAGES_BOOT: finished reading data.pkg
(PID.TID 0000.0001)  PACKAGES_BOOT: On/Off package Summary
 --------  pkgs with a standard "usePKG" On/Off switch in "data.pkg":  --------
 -------- pkgs without standard "usePKG" On/Off switch in "data.pkg":  --------
 pkg/generic_advdiff      compiled   and   used ( useGAD                   = T )
 pkg/mom_common           compiled   and   used ( momStepping              = T )
 pkg/mom_fluxform         compiled   and   used ( & not vectorInvariantMom = T )
 pkg/monitor              compiled   and   used ( monitorFreq > 0.         = T )
 pkg/timeave              compiled   and   used ( taveFreq > 0.            = T )
 pkg/debug                compiled but not used ( debugMode                = F )
 pkg/rw                   compiled   and   used
 pkg/mdsio                compiled   and   used
(PID.TID 0000.0001)  PACKAGES_BOOT: End of package Summary
(PID.TID 0000.0001) 
(PID.TID 0000.0001) SET_PARMS: done
(PID.TID 0000.0001) Enter INI_VERTICAL_GRID: setInterFDr=    T ; setCenterDr=    F
(PID.TID 0000.0001) %MON XC_max                       =   3.5800000000000E+02
(PID.TID 0000.0001) %MON XC_min                       =   2.0000000000000E+00
(PID.TID 0000.0001) %MON XC_mean                      =   1.8000000000000E+02
(PID.TID 0000.0001) %MON XC_sd                        =   1.0391663325314E+02
(PID.TID 0000.0001) %MON XG_max                       =   3.5600000000000E+02
(PID.TID 0000.0001) %MON XG_min                       =   0.0000000000000E+00
(PID.TID 0000.0001) %MON XG_mean                      =   1.7800000000000E+02
(PID.TID 0000.0001) %MON XG_sd                        =   1.0391663325314E+02
(PID.TID 0000.0001) %MON DXC_max                      =   4.4443898815675E+05
(PID.TID 0000.0001) %MON DXC_min                      =   9.2460385861875E+04
(PID.TID 0000.0001) %MON DXC_mean                     =   3.1372497618153E+05
(PID.TID 0000.0001) %MON DXC_sd                       =   1.1216447457560E+05
(PID.TID 0000.0001) %MON DXF_max                      =   4.4443898815675E+05
(PID.TID 0000.0001) %MON DXF_min                      =   9.2460385861875E+04
(PID.TID 0000.0001) %MON DXF_mean                     =   3.1372497618153E+05
(PID.TID 0000.0001) %MON DXF_sd                       =   1.1216447457560E+05
(PID.TID 0000.0001) %MON DXG_max                      =   4.4470989340816E+05
(PID.TID 0000.0001) %MON DXG_min                      =   7.7223062580781E+04
(PID.TID 0000.0001) %MON DXG_mean                     =   3.1353386340261E+05
(PID.TID 0000.0001) %MON DXG_sd                       =   1.1256651772502E+05
(PID.TID 0000.0001) %MON DXV_max                      =   4.4470989340816E+05
(PID.TID 0000.0001) %MON DXV_min                      =   7.7223062580781E+04
(PID.TID 0000.0001) %MON DXV_mean                     =   3.1353386340261E+05
(PID.TID 0000.0001) %MON DXV_sd                       =   1.1256651772502E+05
(PID.TID 0000.0001) %MON YC_max                       =   7.8000000000000E+01
(PID.TID 0000.0001) %MON YC_min                       =  -7.8000000000000E+01
(PID.TID 0000.0001) %MON YC_mean                      =   0.0000000000000E+00
(PID.TID 0000.0001) %MON YC_sd                        =   4.6173585522461E+01
(PID.TID 0000.0001) %MON YG_max                       =   7.6000000000000E+01
(PID.TID 0000.0001) %MON YG_min                       =  -8.0000000000000E+01
(PID.TID 0000.0001) %MON YG_mean                      =  -2.0000000000000E+00
(PID.TID 0000.0001) %MON YG_sd                        =   4.6173585522461E+01
(PID.TID 0000.0001) %MON DYC_max                      =   4.4470989340816E+05
(PID.TID 0000.0001) %MON DYC_min                      =   4.4470989340816E+05
(PID.TID 0000.0001) %MON DYC_mean                     =   4.4470989340817E+05
(PID.TID 0000.0001) %MON DYC_sd                       =   1.4668330550194E-08
(PID.TID 0000.0001) %MON DYF_max                      =   4.4470989340816E+05
(PID.TID 0000.0001) %MON DYF_min                      =   4.4470989340816E+05
(PID.TID 0000.0001) %MON DYF_mean                     =   4.4470989340817E+05
(PID.TID 0000.0001) %MON DYF_sd                       =   1.4668330550194E-08
(PID.TID 0000.0001) %MON DYG_max                      =   4.4470989340816E+05
(PID.TID 0000.0001) %MON DYG_min                      =   4.4470989340816E+05
(PID.TID 0000.0001) %MON DYG_mean                     =   4.4470989340817E+05
(PID.TID 0000.0001) %MON DYG_sd                       =   1.4668330550194E-08
(PID.TID 0000.0001) %MON DYU_max                      =   4.4470989340816E+05
(PID.TID 0000.0001) %MON DYU_min                      =   4.4470989340816E+05
(PID.TID 0000.0001) %MON DYU_mean                     =   4.4470989340817E+05
(PID.TID 0000.0001) %MON DYU_sd                       =   1.4668330550194E-08
(PID.TID 0000.0001) %MON RA_max                       =   1.9760627980089E+11
(PID.TID 0000.0001) %MON RA_min                       =   4.1109698667290E+10
(PID.TID 0000.0001) %MON RA_mean                      =   1.3948826965196E+11
(PID.TID 0000.0001) %MON RA_sd                        =   4.9870522472901E+10
(PID.TID 0000.0001) %MON RAW_max                      =   1.9760627980089E+11
(PID.TID 0000.0001) %MON RAW_min                      =   4.1109698667290E+10
(PID.TID 0000.0001) %MON RAW_mean                     =   1.3948826965196E+11
(PID.TID 0000.0001) %MON RAW_sd                       =   4.9870522472901E+10
(PID.TID 0000.0001) %MON RAS_max                      =   1.9772672958215E+11
(PID.TID 0000.0001) %MON RAS_min                      =   3.4334886267983E+10
(PID.TID 0000.0001) %MON RAS_mean                     =   1.3940329716694E+11
(PID.TID 0000.0001) %MON RAS_sd                       =   5.0049278732353E+10
(PID.TID 0000.0001) %MON RAZ_max                      =   1.9772672958215E+11
(PID.TID 0000.0001) %MON RAZ_min                      =   3.4334886267983E+10
(PID.TID 0000.0001) %MON RAZ_mean                     =   1.3940329716694E+11
(PID.TID 0000.0001) %MON RAZ_sd                       =   5.0049278732353E+10
(PID.TID 0000.0001) %MON AngleCS_max                  =   1.0000000000000E+00
(PID.TID 0000.0001) %MON AngleCS_min                  =   1.0000000000000E+00
(PID.TID 0000.0001) %MON AngleCS_mean                 =   1.0000000000000E+00
(PID.TID 0000.0001) %MON AngleCS_sd                   =   0.0000000000000E+00
(PID.TID 0000.0001) %MON AngleSN_max                  =   0.0000000000000E+00
(PID.TID 0000.0001) %MON AngleSN_min                  =   0.0000000000000E+00
(PID.TID 0000.0001) %MON AngleSN_mean                 =   0.0000000000000E+00
(PID.TID 0000.0001) %MON AngleSN_sd                   =   0.0000000000000E+00
(PID.TID 0000.0001)  MDS_READ_FIELD: opening global file: topog.bin
(PID.TID 0000.0001) // =======================================================
(PID.TID 0000.0001) // Field Model R_low (ini_masks_etc)
(PID.TID 0000.0001) // CMIN =          1.008622348308563E-06
(PID.TID 0000.0001) // CMAX =          1.008622348308563E-06
(PID.TID 0000.0001) // CINT =          0.000000000000000E+00
(PID.TID 0000.0001) // SYMBOLS (CMIN->CMAX): -abcdefghijklmnopqrstuvwxyz+
(PID.TID 0000.0001) //                  0.0: .
(PID.TID 0000.0001) // RANGE I (Lo:Hi:Step):(    -1:    92:     1)
(PID.TID 0000.0001) // RANGE J (Lo:Hi:Step):(    42:    -1:    -1)
(PID.TID 0000.0001) // RANGE K (Lo:Hi:Step):(   1:   1:   1)
(PID.TID 0000.0001) // =======================================================
(PID.TID 0000.0001) // =======================================================
(PID.TID 0000.0001) // END OF FIELD                                          =
(PID.TID 0000.0001) // =======================================================
(PID.TID 0000.0001) 
(PID.TID 0000.0001) // =======================================================
(PID.TID 0000.0001) // Field Model Ro_surf (ini_masks_etc)
(PID.TID 0000.0001) // CMIN =          1.008622348308563E-06
(PID.TID 0000.0001) // CMAX =          5.302312256608400E+07
(PID.TID 0000.0001) // CINT =          1.963819354299370E+06
(PID.TID 0000.0001) // SYMBOLS (CMIN->CMAX): -abcdefghijklmnopqrstuvwxyz+
(PID.TID 0000.0001) //                  0.0: .
(PID.TID 0000.0001) // RANGE I (Lo:Hi:Step):(    -1:    92:     1)
(PID.TID 0000.0001) // RANGE J (Lo:Hi:Step):(    42:    -1:    -1)
(PID.TID 0000.0001) // RANGE K (Lo:Hi:Step):(   1:   1:   1)
(PID.TID 0000.0001) // =======================================================
(PID.TID 0000.0001) K =   1
(PID.TID 0000.0001) //                I=8       I=18      I=28      I=38      I=48      I=58      I=68      I=78      I=88
(PID.TID 0000.0001) // |--J--|101234567|901234567|901234567|901234567|901234567|901234567|901234567|901234567|901234567|9012
(PID.TID 0000.0001) //     42 --------------------------------------------bbcdnttwwwttttqnnlfddc--abcc-----ccbcltttttba-----
(PID.TID 0000.0001) //     41 ----------------------------------------------------------------------------------------------
(PID.TID 0000.0001) //     40 innllaa-aaaaaaaaaaaaa------------------------------------------------------------------aaainnl
(PID.TID 0000.0001) //     39 gnnllibbaaaaaaaa---aa-----------------------------------------------------bdda--------abffgnnl
(PID.TID 0000.0001) //     38 nllllibbaaaaaaa-----------------------------------------------------------bddca------bccfgnlll
(PID.TID 0000.0001) //     37 nnnga------------------------------------------------------------------aa---bca---bggc--agnnng
(PID.TID 0000.0001) //     36 fgga-----------------------------------------nnaa--------------------aaaaaaabnnn-bllfggffcfgga
(PID.TID 0000.0001) //     35 aaaa---------------------------------aaaa--iinnqqa---atttn-----------aaa----annqqqnglllgddaaaa
(PID.TID 0000.0001) //     34 -------------------------------------affc-tticcfab-wwwttttn------------------anqttqqqtttna----
(PID.TID 0000.0001) //     33 a-------------------------------------ffa+++t+++++++++wwwtqna-----------------aifwwtnttttda---
(PID.TID 0000.0001) //     32 a-------------------------------------ag++++t++++++++++wwttnn----------------aaatwttqltttna---
(PID.TID 0000.0001) //     31 --------------------------------------++++++w++++++++++wwwtqn--------------iw++twwwtiltwwn----
(PID.TID 0000.0001) //     30 -------------------------------------t++++w++w+++++++++++++ww------------at++++twwwlgqtwwq----
(PID.TID 0000.0001) //     29 -----------------------------------gf++++t+++tqt+++++++++++wwt-----------w++w+++wtnqq++wtq----
(PID.TID 0000.0001) //     28 ---------------------------------actn+++++++++++++++++++wwwwwtq---------iw++++++wntww++wqa----
(PID.TID 0000.0001) //     27 ----------------cc--------------aftttlt++++++++w+nnw+++wwwwwwttt---aaac-iw++++++qt+++++t------
(PID.TID 0000.0001) //     26 ----------------cnn-----------afw+++wl+++++++++++qwtn++++++wwtttqg-aa-ii-c++++++tw++++wq------
(PID.TID 0000.0001) //     25 ----------------qttq---lla---atfw+++wl+++ww++qqtnt+++++++++wwtttqnn---iifnac+++wqw++wwqq------
(PID.TID 0000.0001) //     24 --------------cntwwtg-qqqa---ftt-++twn+++++++++++++++++++wwwwwttqnqqqf-afnnddwwwtw++++wt------
(PID.TID 0000.0001) //     23 --------------dttwwtl-ttqd---fff--tqtq++++ttw+++++w++++++wwwwwttqqqqqql----bbqwwwt++++ww------
(PID.TID 0000.0001) //     22 gii-----------wwwqttgnttqq---bb-dlqwwlltwwwwt++++++wt+w++wwwwwwtttqqqqii------dwwwttwwtwwigii-
(PID.TID 0000.0001) //     21 ++wqi--------nwwwwqtiwwwqqb-----dltwwqtttnwwt++++++wqwwwwwwwwwttttqnnill--------twwtqttwww++wq
(PID.TID 0000.0001) //     20 ++wwi-------nwwwwwtqwwwwqww------b-fqqqgiltttt+++++++wwwwwwwwwwtttqttqqn---------ntt+++ttw++ww
(PID.TID 0000.0001) //     19 ww++t-------qwwlittl+++qwwwwd---aba-----iannww++++t++++wwwwwwwwttqtttttt-----------w+++wqtww++
(PID.TID 0000.0001) //     22 gii-----------wwwqttgnttqq---bb-dlqwwlltwwwwt++++++wt+w++wwwwwwtttqqqqii------dwwwttwwtwwigii-
(PID.TID 0000.0001) //     21 ++wqi--------nwwwwqtiwwwqqb-----dltwwqtttnwwt++++++wqwwwwwwwwwttttqnnill--------twwtqttwww++wq
(PID.TID 0000.0001) //     20 ++wwi-------nwwwwwtqwwwwqww------b-fqqqgiltttt+++++++wwwwwwwwwwtttqttqqn---------ntt+++ttw++ww
(PID.TID 0000.0001) //     19 ww++t-------qwwlittl+++qwwwwd---aba-----iannww++++t++++wwwwwwwwttqtttttt-----------w+++wqtww++
(PID.TID 0000.0001) //     18 w+++w-------qtnttfqq+++qwww++w+qfaa---iiblntwwwwtwtq+++wwtwwwwwtqtttttwwa----------w+++wqtw+++
(PID.TID 0000.0001) //     17 w+++w-------q-twwdqt+++l+++++++qf-----iilnninnnltwww++wwwttttttnqttqtwwwq---------tw+++wqtw+++
(PID.TID 0000.0001) //     16 w+++w------gn-wwtnntw++i++++++nf-------flnnfnnndf+++wwqflnttttqntttttwwwqt--------it+++wqtw+++
(PID.TID 0000.0001) //     15 w++wlb----aqq-wwwttnwwwnw+++++f---------lggdllnf++++wwwwwtqtttqqtttttwwqttt------atw+++wqtw++w
(PID.TID 0000.0001) //     14 w++nwn----dwwi+++tqqqtwnw++w+tb---------ttgglttg++++++wwtwttqqqnqttqqqqtttt-----aqtw+++wntw++n
(PID.TID 0000.0001) //     13 wwn++t----nwwl+++qwwtqttliiw++n---------wwggittg++++++++wwwtttqqnqqttqttttl----aqttlwwwtntwwn+
(PID.TID 0000.0001) //     12 tt+++wdaqttwwnwntwwwtntqttww++wt+++a----wwigiilw+++++++++wwqtttqqqqqtttttt-----qwwwwttttnttt++
(PID.TID 0000.0001) //     11 tw+++w++qtwwwnnt++wwtlttttwww++++++++--wwwwng-nw+w+++++++++wwwtqntttqqtttt----n+++++wwtqnqtw++
(PID.TID 0000.0001) //     10 tw++ww+w++wtiqqt++wwtqnnnqttwwww+++++w-wwwwtd-nbiw+++++++++wwwtqnttwwttqtq--ad++++++wwttnqtw++
(PID.TID 0000.0001) //      9 ttwwwww+++llglntwtwtqqqttnnnttwwwwwwwwnwwwwt-fbt+++++++++++wwwtnqttwwwttqf-aad++++++wwwtqnttww
(PID.TID 0000.0001) //      8 tttqqqw++twwttwwwwfblqttttttnqqqttqqqtwtwwticfw++++++wwwwwwwttqnttwwwwwwta-aacttn++wtwwwtntttq
(PID.TID 0000.0001) //      7 ninnwwqqt++wnw++wwtgcqtwwwttwwwwwwwttnttwwntw++++++wwwwtttqtqnnttwww+++wwt-aaaintgfqtqwwwtninn
(PID.TID 0000.0001) //      6 w++++++++++++++++wwwnggwwwwwwwwwwwwwwtqqqqttw++++wwwtqnnqnwtww+++w+w+++wwwtqqqqtilnniwtqtww+++
(PID.TID 0000.0001) //      5 +++++++++++++++++wwwttttwwwwwwwwwwwwwtqqqlnlwwwwtttnnnqtwwww++++++++w+wwwwtqqqgitwwwwww+++++++
(PID.TID 0000.0001) //      4 ++tw++++++wwwqttttqqqttqqlbdnnllqqlnqqqqqnnnlnqlnnntttwwwwww+++++++wwwwwttnb--cqtwwwwww+++++tw
(PID.TID 0000.0001) //      3 ttttilqqqdcc----------------------------cclgnqqqqttwwwwwwwwwtttttwwwwttqqbb--ciqtwwwwwwwwttttt
(PID.TID 0000.0001) //      2 --------------------------------------------bbcdnttwwwttttqnnlfddc--abcc-----ccbcltttttba-----
(PID.TID 0000.0001) //      1 ----------------------------------------------------------------------------------------------
(PID.TID 0000.0001) //      0 innllaa-aaaaaaaaaaaaa------------------------------------------------------------------aaainnl
(PID.TID 0000.0001) //     -1 gnnllibbaaaaaaaa---aa-----------------------------------------------------bdda--------abffgnnl
(PID.TID 0000.0001) // =======================================================
(PID.TID 0000.0001) // END OF FIELD                                          =
(PID.TID 0000.0001) // =======================================================
(PID.TID 0000.0001) 
(PID.TID 0000.0001) // =======================================================
(PID.TID 0000.0001) // Field hFacC at iteration          0
(PID.TID 0000.0001) // CMIN =          1.000000000000000E+00
(PID.TID 0000.0001) // CMAX =          1.000000000000000E+00
(PID.TID 0000.0001) // CINT =          0.000000000000000E+00
(PID.TID 0000.0001) // SYMBOLS (CMIN->CMAX): -abcdefghijklmnopqrstuvwxyz+
(PID.TID 0000.0001) //                  0.0: .
(PID.TID 0000.0001) // RANGE I (Lo:Hi:Step):(    -1:    92:     1)
(PID.TID 0000.0001) // RANGE J (Lo:Hi:Step):(    42:    -1:    -1)
(PID.TID 0000.0001) // RANGE K (Lo:Hi:Step):(   1:   1:   1)
(PID.TID 0000.0001) // =======================================================
(PID.TID 0000.0001) // =======================================================
(PID.TID 0000.0001) // END OF FIELD                                          =
(PID.TID 0000.0001) // =======================================================
(PID.TID 0000.0001) 
(PID.TID 0000.0001) // =======================================================
(PID.TID 0000.0001) // Field hFacW at iteration          0
(PID.TID 0000.0001) // CMIN =          1.000000000000000E+00
(PID.TID 0000.0001) // CMAX =          1.000000000000000E+00
(PID.TID 0000.0001) // CINT =          0.000000000000000E+00
(PID.TID 0000.0001) // SYMBOLS (CMIN->CMAX): -abcdefghijklmnopqrstuvwxyz+
(PID.TID 0000.0001) //                  0.0: .
(PID.TID 0000.0001) // RANGE I (Lo:Hi:Step):(    -1:    92:     1)
(PID.TID 0000.0001) // RANGE J (Lo:Hi:Step):(    42:    -1:    -1)
(PID.TID 0000.0001) // RANGE K (Lo:Hi:Step):(   1:   1:   1)
(PID.TID 0000.0001) // =======================================================
(PID.TID 0000.0001) // =======================================================
(PID.TID 0000.0001) // END OF FIELD                                          =
(PID.TID 0000.0001) // =======================================================
(PID.TID 0000.0001) 
(PID.TID 0000.0001) // =======================================================
(PID.TID 0000.0001) // Field hFacS at iteration          0
(PID.TID 0000.0001) // CMIN =          1.000000000000000E+00
(PID.TID 0000.0001) // CMAX =          1.000000000000000E+00
(PID.TID 0000.0001) // CINT =          0.000000000000000E+00
(PID.TID 0000.0001) // SYMBOLS (CMIN->CMAX): -abcdefghijklmnopqrstuvwxyz+
(PID.TID 0000.0001) //                  0.0: .
(PID.TID 0000.0001) // RANGE I (Lo:Hi:Step):(    -1:    92:     1)
(PID.TID 0000.0001) // RANGE J (Lo:Hi:Step):(    42:    -1:    -1)
(PID.TID 0000.0001) // RANGE K (Lo:Hi:Step):(   1:   1:   1)
(PID.TID 0000.0001) // =======================================================
(PID.TID 0000.0001) // =======================================================
(PID.TID 0000.0001) // END OF FIELD                                          =
(PID.TID 0000.0001) // =======================================================
(PID.TID 0000.0001) 
(PID.TID 0000.0001) GAD_INIT_FIXED: GAD_OlMinSize=  1  0  1
(PID.TID 0000.0001) 
(PID.TID 0000.0001) // ===================================
(PID.TID 0000.0001) // GAD parameters :
(PID.TID 0000.0001) // ===================================
(PID.TID 0000.0001) tempAdvScheme =   /* Temp. Horiz.Advection scheme selector */
(PID.TID 0000.0001)                       2
(PID.TID 0000.0001)     ;
(PID.TID 0000.0001) tempVertAdvScheme =   /* Temp. Vert. Advection scheme selector */
(PID.TID 0000.0001)                       2
(PID.TID 0000.0001)     ;
(PID.TID 0000.0001) tempMultiDimAdvec =   /* use Muti-Dim Advec method for Temp */
(PID.TID 0000.0001)                   F
(PID.TID 0000.0001)     ;
(PID.TID 0000.0001) tempSOM_Advection = /* use 2nd Order Moment Advection for Temp */
(PID.TID 0000.0001)                   F
(PID.TID 0000.0001)     ;
(PID.TID 0000.0001) AdamsBashforthGt = /* apply Adams-Bashforth extrapolation on Gt */
(PID.TID 0000.0001)                   T
(PID.TID 0000.0001)     ;
(PID.TID 0000.0001) AdamsBashforth_T = /* apply Adams-Bashforth extrapolation on Temp */
(PID.TID 0000.0001)                   F
(PID.TID 0000.0001)     ;
(PID.TID 0000.0001) saltAdvScheme =   /* Salt. Horiz.advection scheme selector */
(PID.TID 0000.0001)                       2
(PID.TID 0000.0001)     ;
(PID.TID 0000.0001) saltVertAdvScheme =   /* Salt. Vert. Advection scheme selector */
(PID.TID 0000.0001)                       2
(PID.TID 0000.0001)     ;
(PID.TID 0000.0001) saltMultiDimAdvec =   /* use Muti-Dim Advec method for Salt */
(PID.TID 0000.0001)                   F
(PID.TID 0000.0001)     ;
(PID.TID 0000.0001) saltSOM_Advection = /* use 2nd Order Moment Advection for Salt */
(PID.TID 0000.0001)                   F
(PID.TID 0000.0001)     ;
(PID.TID 0000.0001) AdamsBashforthGs = /* apply Adams-Bashforth extrapolation on Gs */
(PID.TID 0000.0001)                   T
(PID.TID 0000.0001)     ;
(PID.TID 0000.0001) AdamsBashforth_S = /* apply Adams-Bashforth extrapolation on Salt */
(PID.TID 0000.0001)                   F
(PID.TID 0000.0001)     ;
(PID.TID 0000.0001) // ===================================
(PID.TID 0000.0001) %MON fCori_max                    =   1.4265546244797E-04
(PID.TID 0000.0001) %MON fCori_min                    =  -1.4265546244797E-04
(PID.TID 0000.0001) %MON fCori_mean                   =  -4.4717316269624E-19
(PID.TID 0000.0001) %MON fCori_sd                     =   9.6599226301547E-05
(PID.TID 0000.0001) %MON fCoriG_max                   =   1.4151032568025E-04
(PID.TID 0000.0001) %MON fCoriG_min                   =  -1.4362679550910E-04
(PID.TID 0000.0001) %MON fCoriG_mean                  =  -3.5906698877274E-06
(PID.TID 0000.0001) %MON fCoriG_sd                    =   9.6548915696245E-05
(PID.TID 0000.0001) %MON fCoriCos_max                 =   1.4575362704741E-04
(PID.TID 0000.0001) %MON fCoriCos_min                 =   3.0322354601388E-05
(PID.TID 0000.0001) %MON fCoriCos_mean                =   1.0288600773632E-04
(PID.TID 0000.0001) %MON fCoriCos_sd                  =   3.6784304327266E-05
(PID.TID 0000.0001) INI_CG2D: CG2D normalisation factor =  6.0025789459946987E-09
(PID.TID 0000.0001) 
(PID.TID 0000.0001) // =======================================================
(PID.TID 0000.0001) // Model configuration
(PID.TID 0000.0001) // =======================================================
(PID.TID 0000.0001) //
(PID.TID 0000.0001) // "Physical" paramters ( PARM01 in namelist )
(PID.TID 0000.0001) //
(PID.TID 0000.0001) buoyancyRelation = /* Type of relation to get Buoyancy */
(PID.TID 0000.0001)               'OCEANICP'
(PID.TID 0000.0001)     ;
(PID.TID 0000.0001) fluidIsAir   =  /* fluid major constituent is Air */
(PID.TID 0000.0001)                   F
(PID.TID 0000.0001)     ;
(PID.TID 0000.0001) fluidIsWater =  /* fluid major constituent is Water */
(PID.TID 0000.0001)                   T
(PID.TID 0000.0001)     ;
(PID.TID 0000.0001) usingPCoords =  /* use p (or p*) vertical coordinate */
(PID.TID 0000.0001)                   T
(PID.TID 0000.0001)     ;
(PID.TID 0000.0001) usingZCoords =  /* use z (or z*) vertical coordinate */
(PID.TID 0000.0001)                   F
(PID.TID 0000.0001)     ;
(PID.TID 0000.0001) tRef =   /* Reference temperature profile ( oC or K ) */
(PID.TID 0000.0001)    15 @  2.000000000000000E+01              /* K =  1: 15 */
(PID.TID 0000.0001)     ;
(PID.TID 0000.0001) sRef =   /* Reference salinity profile ( psu ) */
(PID.TID 0000.0001)    15 @  3.500000000000000E+01              /* K =  1: 15 */
(PID.TID 0000.0001)     ;
(PID.TID 0000.0001) useStrainTensionVisc= /* Use StrainTension Form of Viscous Operator */
(PID.TID 0000.0001)                   F
(PID.TID 0000.0001)     ;
(PID.TID 0000.0001) useVariableVisc = /* Use variable horizontal viscosity */
(PID.TID 0000.0001)                   F
(PID.TID 0000.0001)     ;
(PID.TID 0000.0001) useHarmonicVisc = /* Use harmonic horizontal viscosity */
(PID.TID 0000.0001)                   T
(PID.TID 0000.0001)     ;
(PID.TID 0000.0001) useBiharmonicVisc= /* Use biharmonic horiz.  viscosity */
(PID.TID 0000.0001)                   F
(PID.TID 0000.0001)     ;
(PID.TID 0000.0001) useSmag3D = /* Use isotropic 3-D Smagorinsky viscosity */
(PID.TID 0000.0001)                   F
(PID.TID 0000.0001)     ;
(PID.TID 0000.0001) viscAh  =   /* Lateral harmonic viscosity ( m^2/s ) */
(PID.TID 0000.0001)                 3.000000000000000E+05
(PID.TID 0000.0001)     ;
(PID.TID 0000.0001) viscA4  =   /* Lateral biharmonic viscosity ( m^4/s ) */
(PID.TID 0000.0001)                 0.000000000000000E+00
(PID.TID 0000.0001)     ;
(PID.TID 0000.0001) no_slip_sides =  /* Viscous BCs: No-slip sides */
(PID.TID 0000.0001)                   T
(PID.TID 0000.0001)     ;
(PID.TID 0000.0001) sideDragFactor = /* side-drag scaling factor (non-dim) */
(PID.TID 0000.0001)                 2.000000000000000E+00
(PID.TID 0000.0001)     ;
(PID.TID 0000.0001) viscArNr = /* vertical profile of vertical viscosity (Pa^2/s )*/
(PID.TID 0000.0001)    15 @  1.721611620915750E+05              /* K =  1: 15 */
(PID.TID 0000.0001)     ;
(PID.TID 0000.0001) no_slip_bottom =  /* Viscous BCs: No-slip bottom */
(PID.TID 0000.0001)                   F
(PID.TID 0000.0001)     ;
(PID.TID 0000.0001) bottomDragLinear = /* linear bottom-drag coefficient ( m/s ) */
(PID.TID 0000.0001)                 0.000000000000000E+00
(PID.TID 0000.0001)     ;
(PID.TID 0000.0001) bottomDragQuadratic = /* quadratic bottom-drag coefficient (-) */
(PID.TID 0000.0001)                 0.000000000000000E+00
(PID.TID 0000.0001)     ;
(PID.TID 0000.0001) diffKhT =   /* Laplacian diffusion of heat laterally ( m^2/s ) */
(PID.TID 0000.0001)                 1.000000000000000E+03
(PID.TID 0000.0001)     ;
(PID.TID 0000.0001) diffK4T =   /* Biharmonic diffusion of heat laterally ( m^4/s ) */
(PID.TID 0000.0001)                 0.000000000000000E+00
(PID.TID 0000.0001)     ;
(PID.TID 0000.0001) diffKhS =   /* Laplacian diffusion of salt laterally ( m^2/s ) */
(PID.TID 0000.0001)                 1.000000000000000E+03
(PID.TID 0000.0001)     ;
(PID.TID 0000.0001) diffK4S =   /* Biharmonic diffusion of salt laterally ( m^4/s ) */
(PID.TID 0000.0001)                 0.000000000000000E+00
(PID.TID 0000.0001)     ;
(PID.TID 0000.0001) diffKrNrT = /* vertical profile of vertical diffusion of Temp (Pa^2/s )*/
(PID.TID 0000.0001)    15 @  5.154525811125000E+03              /* K =  1: 15 */
(PID.TID 0000.0001)     ;
(PID.TID 0000.0001) diffKrNrS = /* vertical profile of vertical diffusion of Salt (Pa^2/s )*/
(PID.TID 0000.0001)    15 @  5.154525811125000E+03              /* K =  1: 15 */
(PID.TID 0000.0001)     ;
(PID.TID 0000.0001) diffKrBL79surf = /* Surface diffusion for Bryan and Lewis 79 ( m^2/s ) */
(PID.TID 0000.0001)                 0.000000000000000E+00
(PID.TID 0000.0001)     ;
(PID.TID 0000.0001) diffKrBL79deep = /* Deep diffusion for Bryan and Lewis 1979 ( m^2/s ) */
(PID.TID 0000.0001)                 0.000000000000000E+00
(PID.TID 0000.0001)     ;
(PID.TID 0000.0001) diffKrBL79scl = /* Depth scale for Bryan and Lewis 1979 ( m ) */
(PID.TID 0000.0001)                 2.000000000000000E+02
(PID.TID 0000.0001)     ;
(PID.TID 0000.0001) diffKrBL79Ho = /* Turning depth for Bryan and Lewis 1979 ( m ) */
(PID.TID 0000.0001)                -2.000000000000000E+03
(PID.TID 0000.0001)     ;
(PID.TID 0000.0001) ivdc_kappa = /* Implicit Vertical Diffusivity for Convection (Pa^2/s) */
(PID.TID 0000.0001)                 1.030905162225000E+09
(PID.TID 0000.0001)     ;
(PID.TID 0000.0001) hMixCriteria=  /* Criteria for mixed-layer diagnostic */
(PID.TID 0000.0001)                -8.000000000000000E-01
(PID.TID 0000.0001)     ;
(PID.TID 0000.0001) dRhoSmall =  /* Parameter for mixed-layer diagnostic */
(PID.TID 0000.0001)                 1.000000000000000E-06
(PID.TID 0000.0001)     ;
(PID.TID 0000.0001) hMixSmooth=  /* Smoothing parameter for mixed-layer diagnostic */
(PID.TID 0000.0001)                 0.000000000000000E+00
(PID.TID 0000.0001)     ;
(PID.TID 0000.0001) eosType =  /* Type of Equation of State */
(PID.TID 0000.0001)               'JMD95P'
(PID.TID 0000.0001)     ;
(PID.TID 0000.0001) HeatCapacity_Cp =  /* Specific heat capacity ( J/kg/K ) */
(PID.TID 0000.0001)                 3.994000000000000E+03
(PID.TID 0000.0001)     ;
(PID.TID 0000.0001) celsius2K = /* 0 degree Celsius converted to Kelvin ( K ) */
(PID.TID 0000.0001)                 2.731500000000000E+02
(PID.TID 0000.0001)     ;
(PID.TID 0000.0001) rhoConst  = /* Reference density (Boussinesq)  ( kg/m^3 ) */
(PID.TID 0000.0001)                 1.035000000000000E+03
(PID.TID 0000.0001)     ;
(PID.TID 0000.0001) rhoFacC = /* normalized Reference density @ cell-Center (-) */
(PID.TID 0000.0001)    15 @  1.000000000000000E+00              /* K =  1: 15 */
(PID.TID 0000.0001)     ;
(PID.TID 0000.0001) rhoFacF = /* normalized Reference density @ W-Interface (-) */
(PID.TID 0000.0001)    16 @  1.000000000000000E+00              /* K =  1: 16 */
(PID.TID 0000.0001)     ;
(PID.TID 0000.0001) rhoConstFresh = /* Fresh-water reference density ( kg/m^3 ) */
(PID.TID 0000.0001)                 1.000000000000000E+03
(PID.TID 0000.0001)     ;
(PID.TID 0000.0001) gravity =   /* Gravitational acceleration ( m/s^2 ) */
(PID.TID 0000.0001)                 9.810000000000000E+00
(PID.TID 0000.0001)     ;
(PID.TID 0000.0001) gBaro =   /* Barotropic gravity ( m/s^2 ) */
(PID.TID 0000.0001)                 9.810000000000000E+00
(PID.TID 0000.0001)     ;
(PID.TID 0000.0001) rotationPeriod =   /* Rotation Period ( s ) */
(PID.TID 0000.0001)                 8.616400000000000E+04
(PID.TID 0000.0001)     ;
(PID.TID 0000.0001) omega =   /* Angular velocity ( rad/s ) */
(PID.TID 0000.0001)                 7.292123516990375E-05
(PID.TID 0000.0001)     ;
(PID.TID 0000.0001) f0 =   /* Reference coriolis parameter ( 1/s ) */
(PID.TID 0000.0001)                 1.000000000000000E-04
(PID.TID 0000.0001)     ;
(PID.TID 0000.0001) beta =   /* Beta ( 1/(m.s) ) */
(PID.TID 0000.0001)                 9.999999999999999E-12
(PID.TID 0000.0001)     ;
(PID.TID 0000.0001) fPrime =   /* Second coriolis parameter ( 1/s ) */
(PID.TID 0000.0001)                 0.000000000000000E+00
(PID.TID 0000.0001)     ;
(PID.TID 0000.0001) rigidLid =   /* Rigid lid on/off flag */
(PID.TID 0000.0001)                   F
(PID.TID 0000.0001)     ;
(PID.TID 0000.0001) implicitFreeSurface =   /* Implicit free surface on/off flag */
(PID.TID 0000.0001)                   T
(PID.TID 0000.0001)     ;
(PID.TID 0000.0001) freeSurfFac =   /* Implicit free surface factor */
(PID.TID 0000.0001)                 1.000000000000000E+00
(PID.TID 0000.0001)     ;
(PID.TID 0000.0001) implicSurfPress =  /* Surface Pressure implicit factor (0-1)*/
(PID.TID 0000.0001)                 1.000000000000000E+00
(PID.TID 0000.0001)     ;
(PID.TID 0000.0001) implicDiv2Dflow =  /* Barot. Flow Div. implicit factor (0-1)*/
(PID.TID 0000.0001)                 1.000000000000000E+00
(PID.TID 0000.0001)     ;
(PID.TID 0000.0001) uniformLin_PhiSurf = /* use uniform Bo_surf on/off flag*/
(PID.TID 0000.0001)                   T
(PID.TID 0000.0001)     ;
(PID.TID 0000.0001) uniformFreeSurfLev = /* free-surface level-index is uniform */
(PID.TID 0000.0001)                   F
(PID.TID 0000.0001)     ;
(PID.TID 0000.0001) hFacMin =   /* minimum partial cell factor (hFac) */
(PID.TID 0000.0001)                 1.000000000000000E+00
(PID.TID 0000.0001)     ;
(PID.TID 0000.0001) hFacMinDr = /* minimum partial cell thickness (Pa) */
(PID.TID 0000.0001)                 0.000000000000000E+00
(PID.TID 0000.0001)     ;
(PID.TID 0000.0001) exactConserv =  /* Exact Volume Conservation on/off flag*/
(PID.TID 0000.0001)                   T
(PID.TID 0000.0001)     ;
(PID.TID 0000.0001) linFSConserveTr = /* Tracer correction for Lin Free Surface on/off flag*/
(PID.TID 0000.0001)                   F
(PID.TID 0000.0001)     ;
(PID.TID 0000.0001) nonlinFreeSurf = /* Non-linear Free Surf. options (-1,0,1,2,3)*/
(PID.TID 0000.0001)                       4
(PID.TID 0000.0001)      -1,0= Off ; 1,2,3= On, 2=+rescale gU,gV, 3=+update cg2d solv.
(PID.TID 0000.0001)     ;
(PID.TID 0000.0001) hFacInf =   /* lower threshold for hFac (nonlinFreeSurf only)*/
(PID.TID 0000.0001)                 2.000000000000000E-01
(PID.TID 0000.0001)     ;
(PID.TID 0000.0001) hFacSup =   /* upper threshold for hFac (nonlinFreeSurf only)*/
(PID.TID 0000.0001)                 2.000000000000000E+00
(PID.TID 0000.0001)     ;
(PID.TID 0000.0001) select_rStar = /* r* Vertical coord. options (=0 r coord.; >0 uses r*)*/
(PID.TID 0000.0001)                       0
(PID.TID 0000.0001)     ;
(PID.TID 0000.0001) useRealFreshWaterFlux = /* Real Fresh Water Flux on/off flag*/
(PID.TID 0000.0001)                   F
(PID.TID 0000.0001)     ;
(PID.TID 0000.0001) temp_EvPrRn = /* Temp. of Evap/Prec/R (UNSET=use local T)(oC)*/
(PID.TID 0000.0001)                 1.234567000000000E+05
(PID.TID 0000.0001)     ;
(PID.TID 0000.0001) salt_EvPrRn = /* Salin. of Evap/Prec/R (UNSET=use local S)(psu)*/
(PID.TID 0000.0001)                 0.000000000000000E+00
(PID.TID 0000.0001)     ;
(PID.TID 0000.0001) selectAddFluid = /* option for mass source/sink of fluid (=0: off) */
(PID.TID 0000.0001)                       0
(PID.TID 0000.0001)     ;
(PID.TID 0000.0001) temp_addMass = /* Temp. of addMass array (UNSET=use local T)(oC)*/
(PID.TID 0000.0001)                 1.234567000000000E+05
(PID.TID 0000.0001)     ;
(PID.TID 0000.0001) salt_addMass = /* Salin. of addMass array (UNSET=use local S)(psu)*/
(PID.TID 0000.0001)                 0.000000000000000E+00
(PID.TID 0000.0001)     ;
(PID.TID 0000.0001) convertFW2Salt = /* convert F.W. Flux to Salt Flux (-1=use local S)(psu)*/
(PID.TID 0000.0001)                 3.500000000000000E+01
(PID.TID 0000.0001)     ;
(PID.TID 0000.0001) use3Dsolver = /* use 3-D pressure solver on/off flag */
(PID.TID 0000.0001)                   F
(PID.TID 0000.0001)     ;
(PID.TID 0000.0001) nonHydrostatic =  /* Non-Hydrostatic on/off flag */
(PID.TID 0000.0001)                   F
(PID.TID 0000.0001)     ;
(PID.TID 0000.0001) nh_Am2 = /* Non-Hydrostatic terms scaling factor */
(PID.TID 0000.0001)                 1.000000000000000E+00
(PID.TID 0000.0001)     ;
(PID.TID 0000.0001) implicitNHPress = /* Non-Hyd Pressure implicit factor (0-1)*/
(PID.TID 0000.0001)                 1.000000000000000E+00
(PID.TID 0000.0001)     ;
(PID.TID 0000.0001) selectNHfreeSurf = /* Non-Hyd (free-)Surface option */
(PID.TID 0000.0001)                       0
(PID.TID 0000.0001)     ;
(PID.TID 0000.0001) quasiHydrostatic = /* Quasi-Hydrostatic on/off flag */
(PID.TID 0000.0001)                   F
(PID.TID 0000.0001)     ;
(PID.TID 0000.0001) calc_wVelocity = /* vertical velocity calculation on/off flag */
(PID.TID 0000.0001)                   T
(PID.TID 0000.0001)     ;
(PID.TID 0000.0001) momStepping =  /* Momentum equation on/off flag */
(PID.TID 0000.0001)                   T
(PID.TID 0000.0001)     ;
(PID.TID 0000.0001) vectorInvariantMomentum= /* Vector-Invariant Momentum on/off */
(PID.TID 0000.0001)                   F
(PID.TID 0000.0001)     ;
(PID.TID 0000.0001) momAdvection =  /* Momentum advection on/off flag */
(PID.TID 0000.0001)                   T
(PID.TID 0000.0001)     ;
(PID.TID 0000.0001) momViscosity =  /* Momentum viscosity on/off flag */
(PID.TID 0000.0001)                   T
(PID.TID 0000.0001)     ;
(PID.TID 0000.0001) momImplVertAdv= /* Momentum implicit vert. advection on/off*/
(PID.TID 0000.0001)                   F
(PID.TID 0000.0001)     ;
(PID.TID 0000.0001) implicitViscosity = /* Implicit viscosity on/off flag */
(PID.TID 0000.0001)                   F
(PID.TID 0000.0001)     ;
(PID.TID 0000.0001) metricTerms =  /* metric-Terms on/off flag */
(PID.TID 0000.0001)                   T
(PID.TID 0000.0001)     ;
(PID.TID 0000.0001) useNHMTerms = /* Non-Hydrostatic Metric-Terms on/off */
(PID.TID 0000.0001)                   T
(PID.TID 0000.0001)     ;
(PID.TID 0000.0001) selectCoriMap = /* Coriolis Map options (0,1,2,3)*/
(PID.TID 0000.0001)                       2
(PID.TID 0000.0001)     0= f-Plane ; 1= Beta-Plane ; 2= Spherical ; 3= read from file
(PID.TID 0000.0001)     ;
(PID.TID 0000.0001) use3dCoriolis = /* 3-D Coriolis on/off flag */
(PID.TID 0000.0001)                   F
(PID.TID 0000.0001)     ;
(PID.TID 0000.0001) useCoriolis =  /* Coriolis on/off flag */
(PID.TID 0000.0001)                   T
(PID.TID 0000.0001)     ;
(PID.TID 0000.0001) useCDscheme =  /* CD scheme on/off flag */
(PID.TID 0000.0001)                   F
(PID.TID 0000.0001)     ;
(PID.TID 0000.0001) useEnergyConservingCoriolis= /* Flx-Form Coriolis scheme flag */
(PID.TID 0000.0001)                   F
(PID.TID 0000.0001)     ;
(PID.TID 0000.0001) useJamartWetPoints= /* Coriolis WetPoints method flag */
(PID.TID 0000.0001)                   F
(PID.TID 0000.0001)     ;
(PID.TID 0000.0001) useJamartMomAdv= /* V.I Non-linear terms Jamart flag */
(PID.TID 0000.0001)                   F
(PID.TID 0000.0001)     ;
(PID.TID 0000.0001) useAbsVorticity= /* V.I Works with f+zeta in Coriolis */
(PID.TID 0000.0001)                   F
(PID.TID 0000.0001)     ;
(PID.TID 0000.0001) selectVortScheme= /* V.I Scheme selector for Vorticity-Term */
(PID.TID 0000.0001)               123456789
(PID.TID 0000.0001)    = 0 : enstrophy (Shallow-Water Eq.) conserving scheme by Sadourny, JAS 75
(PID.TID 0000.0001)    = 1 : same as 0 with modified hFac
(PID.TID 0000.0001)    = 2 : energy conserving scheme (used by Sadourny in JAS 75 paper)
(PID.TID 0000.0001)    = 3 : energy (general) and enstrophy (2D, nonDiv.) conserving scheme
(PID.TID 0000.0001)          from Sadourny (Burridge & Haseler, ECMWF Rep.4, 1977)
(PID.TID 0000.0001)     ;
(PID.TID 0000.0001) upwindVorticity= /* V.I Upwind bias vorticity flag */
(PID.TID 0000.0001)                   F
(PID.TID 0000.0001)     ;
(PID.TID 0000.0001) highOrderVorticity= /* V.I High order vort. advect. flag */
(PID.TID 0000.0001)                   F
(PID.TID 0000.0001)     ;
(PID.TID 0000.0001) upwindShear= /* V.I Upwind vertical Shear advection flag */
(PID.TID 0000.0001)                   F
(PID.TID 0000.0001)     ;
(PID.TID 0000.0001) selectKEscheme= /* V.I Kinetic Energy scheme selector */
(PID.TID 0000.0001)                       0
(PID.TID 0000.0001)     ;
(PID.TID 0000.0001) momForcing =  /* Momentum forcing on/off flag */
(PID.TID 0000.0001)                   T
(PID.TID 0000.0001)     ;
(PID.TID 0000.0001) momPressureForcing =  /* Momentum pressure term on/off flag */
(PID.TID 0000.0001)                   T
(PID.TID 0000.0001)     ;
(PID.TID 0000.0001) implicitIntGravWave= /* Implicit Internal Gravity Wave flag */
(PID.TID 0000.0001)                   F
(PID.TID 0000.0001)     ;
(PID.TID 0000.0001) staggerTimeStep =    /* Stagger time stepping on/off flag */
(PID.TID 0000.0001)                   F
(PID.TID 0000.0001)     ;
(PID.TID 0000.0001) doResetHFactors = /* reset thickness factors @ each time-step */
(PID.TID 0000.0001)                   T
(PID.TID 0000.0001)     ;
(PID.TID 0000.0001) multiDimAdvection =  /* enable/disable Multi-Dim Advection */
(PID.TID 0000.0001)                   T
(PID.TID 0000.0001)     ;
(PID.TID 0000.0001) useMultiDimAdvec =   /* Multi-Dim Advection is/is-not used */
(PID.TID 0000.0001)                   F
(PID.TID 0000.0001)     ;
(PID.TID 0000.0001) implicitDiffusion = /* Implicit Diffusion on/off flag */
(PID.TID 0000.0001)                   T
(PID.TID 0000.0001)     ;
(PID.TID 0000.0001) tempStepping =  /* Temperature equation on/off flag */
(PID.TID 0000.0001)                   T
(PID.TID 0000.0001)     ;
(PID.TID 0000.0001) tempAdvection = /* Temperature advection on/off flag */
(PID.TID 0000.0001)                   T
(PID.TID 0000.0001)     ;
(PID.TID 0000.0001) tempImplVertAdv = /* Temp. implicit vert. advection on/off */
(PID.TID 0000.0001)                   F
(PID.TID 0000.0001)     ;
(PID.TID 0000.0001) tempForcing  =  /* Temperature forcing on/off flag */
(PID.TID 0000.0001)                   T
(PID.TID 0000.0001)     ;
(PID.TID 0000.0001) doThetaClimRelax = /* apply SST relaxation on/off flag */
(PID.TID 0000.0001)                   T
(PID.TID 0000.0001)     ;
(PID.TID 0000.0001) tempIsActiveTr = /* Temp. is a dynamically Active Tracer */
(PID.TID 0000.0001)                   T
(PID.TID 0000.0001)     ;
(PID.TID 0000.0001) saltStepping =  /* Salinity equation on/off flag */
(PID.TID 0000.0001)                   T
(PID.TID 0000.0001)     ;
(PID.TID 0000.0001) saltAdvection = /* Salinity advection on/off flag */
(PID.TID 0000.0001)                   T
(PID.TID 0000.0001)     ;
(PID.TID 0000.0001) saltImplVertAdv = /* Sali. implicit vert. advection on/off */
(PID.TID 0000.0001)                   F
(PID.TID 0000.0001)     ;
(PID.TID 0000.0001) saltForcing  =  /* Salinity forcing on/off flag */
(PID.TID 0000.0001)                   T
(PID.TID 0000.0001)     ;
(PID.TID 0000.0001) doSaltClimRelax = /* apply SSS relaxation on/off flag */
(PID.TID 0000.0001)                   F
(PID.TID 0000.0001)     ;
(PID.TID 0000.0001) saltIsActiveTr = /* Salt  is a dynamically Active Tracer */
(PID.TID 0000.0001)                   T
(PID.TID 0000.0001)     ;
(PID.TID 0000.0001)  readBinaryPrec = /* Precision used for reading binary files */
(PID.TID 0000.0001)                      64
(PID.TID 0000.0001)     ;
(PID.TID 0000.0001) writeBinaryPrec = /* Precision used for writing binary files */
(PID.TID 0000.0001)                      64
(PID.TID 0000.0001)     ;
(PID.TID 0000.0001)  globalFiles = /* write "global" (=not per tile) files */
(PID.TID 0000.0001)                   F
(PID.TID 0000.0001)     ;
(PID.TID 0000.0001)  useSingleCpuIO = /* only master MPI process does I/O */
(PID.TID 0000.0001)                   F
(PID.TID 0000.0001)     ;
(PID.TID 0000.0001)  useSingleCpuInput = /* only master process reads input */
(PID.TID 0000.0001)                   F
(PID.TID 0000.0001)     ;
(PID.TID 0000.0001) /* debLev[*]  : level of debug & auxiliary message printing */
(PID.TID 0000.0001) debLevZero =  0 ; /* level of disabled aux. msg printing */
(PID.TID 0000.0001)    debLevA =  1 ; /* level of minimum  aux. msg printing */
(PID.TID 0000.0001)    debLevB =  2 ; /* level of low aux. print (report read-file opening)*/
(PID.TID 0000.0001)    debLevC =  3 ; /* level of moderate debug prt (most pkgs debug msg) */
(PID.TID 0000.0001)    debLevD =  4 ; /* level of enhanced debug prt (add DEBUG_STATS prt) */
(PID.TID 0000.0001)    debLevE =  5 ; /* level of extensive debug printing */
(PID.TID 0000.0001) debugLevel =  /* select debug printing level */
(PID.TID 0000.0001)                       2
(PID.TID 0000.0001)     ;
(PID.TID 0000.0001) //
(PID.TID 0000.0001) // Elliptic solver(s) paramters ( PARM02 in namelist )
(PID.TID 0000.0001) //
(PID.TID 0000.0001) cg2dMaxIters =   /* Upper limit on 2d con. grad iterations  */
(PID.TID 0000.0001)                     200
(PID.TID 0000.0001)     ;
(PID.TID 0000.0001) cg2dChkResFreq =   /* 2d con. grad convergence test frequency */
(PID.TID 0000.0001)                       1
(PID.TID 0000.0001)     ;
(PID.TID 0000.0001) cg2dUseMinResSol= /* use cg2d last-iter(=0) / min-resid.(=1) solution */
(PID.TID 0000.0001)                       0
(PID.TID 0000.0001)     ;
(PID.TID 0000.0001) cg2dTargetResidual =   /* 2d con. grad target residual  */
(PID.TID 0000.0001)                 1.000000000000000E-09
(PID.TID 0000.0001)     ;
(PID.TID 0000.0001) cg2dTargetResWunit =   /* CG2d target residual [W units] */
(PID.TID 0000.0001)                -1.000000000000000E+00
(PID.TID 0000.0001)     ;
(PID.TID 0000.0001) cg2dPreCondFreq =   /* Freq. for updating cg2d preconditioner */
(PID.TID 0000.0001)                       1
(PID.TID 0000.0001)     ;
(PID.TID 0000.0001) useSRCGSolver =  /* use single reduction CG solver(s) */
(PID.TID 0000.0001)                   F
(PID.TID 0000.0001)     ;
(PID.TID 0000.0001) printResidualFreq = /* Freq. for printing CG residual */
(PID.TID 0000.0001)                       0
(PID.TID 0000.0001)     ;
(PID.TID 0000.0001) //
(PID.TID 0000.0001) // Time stepping paramters ( PARM03 in namelist )
(PID.TID 0000.0001) //
(PID.TID 0000.0001) deltaTMom =   /* Momentum equation timestep ( s ) */
(PID.TID 0000.0001)                 1.200000000000000E+03
(PID.TID 0000.0001)     ;
(PID.TID 0000.0001) deltaTFreeSurf = /* FreeSurface equation timestep ( s ) */
(PID.TID 0000.0001)                 1.728000000000000E+05
(PID.TID 0000.0001)     ;
(PID.TID 0000.0001) dTtracerLev =  /* Tracer equation timestep ( s ) */
(PID.TID 0000.0001)    15 @  1.728000000000000E+05              /* K =  1: 15 */
(PID.TID 0000.0001)     ;
(PID.TID 0000.0001) deltaTClock  =   /* Model clock timestep ( s ) */
(PID.TID 0000.0001)                 1.728000000000000E+05
(PID.TID 0000.0001)     ;
(PID.TID 0000.0001) cAdjFreq =   /* Convective adjustment interval ( s ) */
(PID.TID 0000.0001)                 0.000000000000000E+00
(PID.TID 0000.0001)     ;
(PID.TID 0000.0001) momForcingOutAB = /* =1: take Momentum Forcing out of Adams-Bash. stepping */
(PID.TID 0000.0001)                       0
(PID.TID 0000.0001)     ;
(PID.TID 0000.0001) tracForcingOutAB = /* =1: take T,S,pTr Forcing out of Adams-Bash. stepping */
(PID.TID 0000.0001)                       0
(PID.TID 0000.0001)     ;
(PID.TID 0000.0001) momDissip_In_AB = /* put Dissipation Tendency in Adams-Bash. stepping */
(PID.TID 0000.0001)                   T
(PID.TID 0000.0001)     ;
(PID.TID 0000.0001) doAB_onGtGs = /* apply AB on Tendencies (rather than on T,S)*/
(PID.TID 0000.0001)                   T
(PID.TID 0000.0001)     ;
(PID.TID 0000.0001) abEps =   /* Adams-Bashforth-2 stabilizing weight */
(PID.TID 0000.0001)                 1.000000000000000E-01
(PID.TID 0000.0001)     ;
(PID.TID 0000.0001) pickupStrictlyMatch= /* stop if pickup do not strictly match */
(PID.TID 0000.0001)                   T
(PID.TID 0000.0001)     ;
(PID.TID 0000.0001) nIter0   =   /* Run starting timestep number */
(PID.TID 0000.0001)                       0
(PID.TID 0000.0001)     ;
(PID.TID 0000.0001) nTimeSteps = /* Number of timesteps */
(PID.TID 0000.0001)                      20
(PID.TID 0000.0001)     ;
(PID.TID 0000.0001) nEndIter =   /* Run ending timestep number */
(PID.TID 0000.0001)                      20
(PID.TID 0000.0001)     ;
(PID.TID 0000.0001) baseTime =   /* Model base time ( s ) */
(PID.TID 0000.0001)                 0.000000000000000E+00
(PID.TID 0000.0001)     ;
(PID.TID 0000.0001) startTime =  /* Run start time ( s ) */
(PID.TID 0000.0001)                 0.000000000000000E+00
(PID.TID 0000.0001)     ;
(PID.TID 0000.0001) endTime  =   /* Integration ending time ( s ) */
(PID.TID 0000.0001)                 3.456000000000000E+06
(PID.TID 0000.0001)     ;
(PID.TID 0000.0001) pChkPtFreq = /* Permanent restart/pickup file interval ( s ) */
(PID.TID 0000.0001)                 3.110400000000000E+09
(PID.TID 0000.0001)     ;
(PID.TID 0000.0001) chkPtFreq  = /* Rolling restart/pickup file interval ( s ) */
(PID.TID 0000.0001)                 0.000000000000000E+00
(PID.TID 0000.0001)     ;
(PID.TID 0000.0001) pickup_write_mdsio =   /* Model IO flag. */
(PID.TID 0000.0001)                   T
(PID.TID 0000.0001)     ;
(PID.TID 0000.0001) pickup_read_mdsio =   /* Model IO flag. */
(PID.TID 0000.0001)                   T
(PID.TID 0000.0001)     ;
(PID.TID 0000.0001) pickup_write_immed =   /* Model IO flag. */
(PID.TID 0000.0001)                   F
(PID.TID 0000.0001)     ;
(PID.TID 0000.0001) writePickupAtEnd =   /* Model IO flag. */
(PID.TID 0000.0001)                   T
(PID.TID 0000.0001)     ;
(PID.TID 0000.0001) dumpFreq =   /* Model state write out interval ( s ). */
(PID.TID 0000.0001)                 3.110400000000000E+09
(PID.TID 0000.0001)     ;
(PID.TID 0000.0001) dumpInitAndLast= /* write out Initial & Last iter. model state */
(PID.TID 0000.0001)                   T
(PID.TID 0000.0001)     ;
(PID.TID 0000.0001) snapshot_mdsio =   /* Model IO flag. */
(PID.TID 0000.0001)                   T
(PID.TID 0000.0001)     ;
(PID.TID 0000.0001) monitorFreq =   /* Monitor output interval ( s ). */
(PID.TID 0000.0001)                 1.000000000000000E+00
(PID.TID 0000.0001)     ;
(PID.TID 0000.0001) monitorSelect = /* select group of variables to monitor */
(PID.TID 0000.0001)                       3
(PID.TID 0000.0001)     ;
(PID.TID 0000.0001) monitor_stdio =   /* Model IO flag. */
(PID.TID 0000.0001)                   T
(PID.TID 0000.0001)     ;
(PID.TID 0000.0001) externForcingPeriod =   /* forcing period (s) */
(PID.TID 0000.0001)                 2.592000000000000E+06
(PID.TID 0000.0001)     ;
(PID.TID 0000.0001) externForcingCycle =   /* period of the cyle (s). */
(PID.TID 0000.0001)                 3.110400000000000E+07
(PID.TID 0000.0001)     ;
(PID.TID 0000.0001) tauThetaClimRelax =   /* relaxation time scale (s) */
(PID.TID 0000.0001)                 5.184000000000000E+06
(PID.TID 0000.0001)     ;
(PID.TID 0000.0001) tauSaltClimRelax =   /* relaxation time scale (s) */
(PID.TID 0000.0001)                 0.000000000000000E+00
(PID.TID 0000.0001)     ;
(PID.TID 0000.0001) latBandClimRelax =   /* max. Lat. where relaxation */
(PID.TID 0000.0001)                 1.800000000000000E+02
(PID.TID 0000.0001)     ;
(PID.TID 0000.0001) //
(PID.TID 0000.0001) // Gridding paramters ( PARM04 in namelist )
(PID.TID 0000.0001) //
(PID.TID 0000.0001) usingCartesianGrid = /* Cartesian coordinates flag ( True/False ) */
(PID.TID 0000.0001)                   F
(PID.TID 0000.0001)     ;
(PID.TID 0000.0001) usingCylindricalGrid = /* Cylindrical coordinates flag ( True/False ) */
(PID.TID 0000.0001)                   F
(PID.TID 0000.0001)     ;
(PID.TID 0000.0001) usingSphericalPolarGrid = /* Spherical coordinates flag ( True/False ) */
(PID.TID 0000.0001)                   T
(PID.TID 0000.0001)     ;
(PID.TID 0000.0001) usingCurvilinearGrid = /* Curvilinear coordinates flag ( True/False ) */
(PID.TID 0000.0001)                   F
(PID.TID 0000.0001)     ;
(PID.TID 0000.0001) selectSigmaCoord = /* Hybrid-Sigma Vert. Coordinate option */
(PID.TID 0000.0001)                       0
(PID.TID 0000.0001)     ;
(PID.TID 0000.0001) Ro_SeaLevel = /* r(1) ( units of r == Pa ) */
(PID.TID 0000.0001)                 5.302312256608400E+07
(PID.TID 0000.0001)     ;
(PID.TID 0000.0001) rSigmaBnd = /* r/sigma transition ( units of r == Pa ) */
(PID.TID 0000.0001)                 1.234567000000000E+05
(PID.TID 0000.0001)     ;
(PID.TID 0000.0001) rkSign =   /* index orientation relative to vertical coordinate */
(PID.TID 0000.0001)                -1.000000000000000E+00
(PID.TID 0000.0001)     ;
(PID.TID 0000.0001) gravitySign = /* gravity orientation relative to vertical coordinate */
(PID.TID 0000.0001)                 1.000000000000000E+00
(PID.TID 0000.0001)     ;
(PID.TID 0000.0001) mass2rUnit = /* convert mass per unit area [kg/m2] to r-units [Pa] */
(PID.TID 0000.0001)                 9.810000000000000E+00
(PID.TID 0000.0001)     ;
(PID.TID 0000.0001) rUnit2mass = /* convert r-units [Pa] to mass per unit area [kg/m2] */
(PID.TID 0000.0001)                 1.019367991845056E-01
(PID.TID 0000.0001)     ;
(PID.TID 0000.0001) drC =   /* C spacing ( units of r ) */
(PID.TID 0000.0001)                 3.551650360010500E+06,      /* K =  1 */
(PID.TID 0000.0001)                 6.836924580405500E+06,      /* K =  2 */
(PID.TID 0000.0001)                 6.306109225519501E+06,      /* K =  3 */
(PID.TID 0000.0001)                 5.779053338153000E+06,      /* K =  4 */
(PID.TID 0000.0001)                 5.255519350233500E+06,      /* K =  5 */
(PID.TID 0000.0001)                 4.735252734850001E+06,      /* K =  6 */
(PID.TID 0000.0001)                 4.217983340545500E+06,      /* K =  7 */
(PID.TID 0000.0001)                 3.703426779226000E+06,      /* K =  8 */
(PID.TID 0000.0001)                 3.191285859157500E+06,      /* K =  9 */
(PID.TID 0000.0001)                 2.681252055355000E+06,      /* K = 10 */
(PID.TID 0000.0001)                 2.173007010517000E+06,      /* K = 11 */
(PID.TID 0000.0001)                 1.666224060479000E+06,      /* K = 12 */
(PID.TID 0000.0001)                 1.211001777568000E+06,      /* K = 13 */
(PID.TID 0000.0001)                 8.573828878235000E+05,      /* K = 14 */
(PID.TID 0000.0001)                 6.050043594899999E+05,      /* K = 15 */
(PID.TID 0000.0001)                 2.520448467495000E+05       /* K = 16 */
(PID.TID 0000.0001)     ;
(PID.TID 0000.0001) drF =   /* W spacing ( units of r ) */
(PID.TID 0000.0001)                 7.103300720021000E+06,      /* K =  1 */
(PID.TID 0000.0001)                 6.570548440790000E+06,      /* K =  2 */
(PID.TID 0000.0001)                 6.041670010249000E+06,      /* K =  3 */
(PID.TID 0000.0001)                 5.516436666057000E+06,      /* K =  4 */
(PID.TID 0000.0001)                 4.994602034410000E+06,      /* K =  5 */
(PID.TID 0000.0001)                 4.475903435290000E+06,      /* K =  6 */
(PID.TID 0000.0001)                 3.960063245801000E+06,      /* K =  7 */
(PID.TID 0000.0001)                 3.446790312651000E+06,      /* K =  8 */
(PID.TID 0000.0001)                 2.935781405664000E+06,      /* K =  9 */
(PID.TID 0000.0001)                 2.426722705046000E+06,      /* K = 10 */
(PID.TID 0000.0001)                 1.919291315988000E+06,      /* K = 11 */
(PID.TID 0000.0001)                 1.413156804970000E+06,      /* K = 12 */
(PID.TID 0000.0001)                 1.008846750166000E+06,      /* K = 13 */
(PID.TID 0000.0001)                 7.059190254810000E+05,      /* K = 14 */
(PID.TID 0000.0001)                 5.040896934990000E+05       /* K = 15 */
(PID.TID 0000.0001)     ;
(PID.TID 0000.0001) delX = /* U spacing ( m - cartesian, degrees - spherical ) */
(PID.TID 0000.0001)    90 @  4.000000000000000E+00              /* I =  1: 90 */
(PID.TID 0000.0001)     ;
(PID.TID 0000.0001) delY = /* V spacing ( m - cartesian, degrees - spherical ) */
(PID.TID 0000.0001)    40 @  4.000000000000000E+00              /* J =  1: 40 */
(PID.TID 0000.0001)     ;
(PID.TID 0000.0001) xgOrigin = /* X-axis origin of West  edge (cartesian: m, lat-lon: deg) */
(PID.TID 0000.0001)                 0.000000000000000E+00
(PID.TID 0000.0001)     ;
(PID.TID 0000.0001) ygOrigin = /* Y-axis origin of South edge (cartesian: m, lat-lon: deg) */
(PID.TID 0000.0001)                -8.000000000000000E+01
(PID.TID 0000.0001)     ;
(PID.TID 0000.0001) rSphere =  /* Radius ( ignored - cartesian, m - spherical ) */
(PID.TID 0000.0001)                 6.370000000000000E+06
(PID.TID 0000.0001)     ;
(PID.TID 0000.0001) deepAtmosphere = /* Deep/Shallow Atmosphere flag (True/False) */
(PID.TID 0000.0001)                   F
(PID.TID 0000.0001)     ;
(PID.TID 0000.0001) xC =  /* xC(:,1,:,1) : P-point X coord ( deg. or m if cartesian) */
(PID.TID 0000.0001)                 2.000000000000000E+00,      /* I =  1 */
(PID.TID 0000.0001)                 6.000000000000000E+00,      /* I =  2 */
(PID.TID 0000.0001)                 1.000000000000000E+01,      /* I =  3 */
(PID.TID 0000.0001)      . . .
(PID.TID 0000.0001)                 8.200000000000000E+01,      /* I = 21 */
(PID.TID 0000.0001)                 8.600000000000000E+01,      /* I = 22 */
(PID.TID 0000.0001)                 9.000000000000000E+01,      /* I = 23 */
(PID.TID 0000.0001)                 9.400000000000000E+01,      /* I = 24 */
(PID.TID 0000.0001)                 9.800000000000000E+01,      /* I = 25 */
(PID.TID 0000.0001)                 1.020000000000000E+02,      /* I = 26 */
(PID.TID 0000.0001)      . . .
(PID.TID 0000.0001)                 1.700000000000000E+02,      /* I = 43 */
(PID.TID 0000.0001)                 1.740000000000000E+02,      /* I = 44 */
(PID.TID 0000.0001)                 1.780000000000000E+02,      /* I = 45 */
(PID.TID 0000.0001)                 1.820000000000000E+02,      /* I = 46 */
(PID.TID 0000.0001)                 1.860000000000000E+02,      /* I = 47 */
(PID.TID 0000.0001)                 1.900000000000000E+02,      /* I = 48 */
(PID.TID 0000.0001)      . . .
(PID.TID 0000.0001)                 2.580000000000000E+02,      /* I = 65 */
(PID.TID 0000.0001)                 2.620000000000000E+02,      /* I = 66 */
(PID.TID 0000.0001)                 2.660000000000000E+02,      /* I = 67 */
(PID.TID 0000.0001)                 2.700000000000000E+02,      /* I = 68 */
(PID.TID 0000.0001)                 2.740000000000000E+02,      /* I = 69 */
(PID.TID 0000.0001)                 2.780000000000000E+02,      /* I = 70 */
(PID.TID 0000.0001)      . . .
(PID.TID 0000.0001)                 3.500000000000000E+02,      /* I = 88 */
(PID.TID 0000.0001)                 3.540000000000000E+02,      /* I = 89 */
(PID.TID 0000.0001)                 3.580000000000000E+02       /* I = 90 */
(PID.TID 0000.0001)     ;
(PID.TID 0000.0001) yC =  /* yC(1,:,1,:) : P-point Y coord ( deg. or m if cartesian) */
(PID.TID 0000.0001)                -7.800000000000000E+01,      /* J =  1 */
(PID.TID 0000.0001)                -7.400000000000000E+01,      /* J =  2 */
(PID.TID 0000.0001)                -7.000000000000000E+01,      /* J =  3 */
(PID.TID 0000.0001)                -6.600000000000000E+01,      /* J =  4 */
(PID.TID 0000.0001)                -6.200000000000000E+01,      /* J =  5 */
(PID.TID 0000.0001)                -5.800000000000000E+01,      /* J =  6 */
(PID.TID 0000.0001)                -5.400000000000000E+01,      /* J =  7 */
(PID.TID 0000.0001)                -5.000000000000000E+01,      /* J =  8 */
(PID.TID 0000.0001)                -4.600000000000000E+01,      /* J =  9 */
(PID.TID 0000.0001)                -4.200000000000000E+01,      /* J = 10 */
(PID.TID 0000.0001)                -3.800000000000000E+01,      /* J = 11 */
(PID.TID 0000.0001)                -3.400000000000000E+01,      /* J = 12 */
(PID.TID 0000.0001)                -3.000000000000000E+01,      /* J = 13 */
(PID.TID 0000.0001)                -2.600000000000000E+01,      /* J = 14 */
(PID.TID 0000.0001)                -2.200000000000000E+01,      /* J = 15 */
(PID.TID 0000.0001)                -1.800000000000000E+01,      /* J = 16 */
(PID.TID 0000.0001)                -1.400000000000000E+01,      /* J = 17 */
(PID.TID 0000.0001)                -1.000000000000000E+01,      /* J = 18 */
(PID.TID 0000.0001)                -6.000000000000000E+00,      /* J = 19 */
(PID.TID 0000.0001)                -2.000000000000000E+00,      /* J = 20 */
(PID.TID 0000.0001)                 2.000000000000000E+00,      /* J = 21 */
(PID.TID 0000.0001)                 6.000000000000000E+00,      /* J = 22 */
(PID.TID 0000.0001)                 1.000000000000000E+01,      /* J = 23 */
(PID.TID 0000.0001)                 1.400000000000000E+01,      /* J = 24 */
(PID.TID 0000.0001)                 1.800000000000000E+01,      /* J = 25 */
(PID.TID 0000.0001)                 2.200000000000000E+01,      /* J = 26 */
(PID.TID 0000.0001)                 2.600000000000000E+01,      /* J = 27 */
(PID.TID 0000.0001)                 3.000000000000000E+01,      /* J = 28 */
(PID.TID 0000.0001)                 3.400000000000000E+01,      /* J = 29 */
(PID.TID 0000.0001)                 3.800000000000000E+01,      /* J = 30 */
(PID.TID 0000.0001)                 4.200000000000000E+01,      /* J = 31 */
(PID.TID 0000.0001)                 4.600000000000000E+01,      /* J = 32 */
(PID.TID 0000.0001)                 5.000000000000000E+01,      /* J = 33 */
(PID.TID 0000.0001)                 5.400000000000000E+01,      /* J = 34 */
(PID.TID 0000.0001)                 5.800000000000000E+01,      /* J = 35 */
(PID.TID 0000.0001)                 6.200000000000000E+01,      /* J = 36 */
(PID.TID 0000.0001)                 6.600000000000000E+01,      /* J = 37 */
(PID.TID 0000.0001)                 7.000000000000000E+01,      /* J = 38 */
(PID.TID 0000.0001)                 7.400000000000000E+01,      /* J = 39 */
(PID.TID 0000.0001)                 7.800000000000000E+01       /* J = 40 */
(PID.TID 0000.0001)     ;
(PID.TID 0000.0001) rcoord = /* P-point R coordinate (  units of r ) */
(PID.TID 0000.0001)                 4.947147220607350E+07,      /* K =  1 */
(PID.TID 0000.0001)                 4.263454762566800E+07,      /* K =  2 */
(PID.TID 0000.0001)                 3.632843840014850E+07,      /* K =  3 */
(PID.TID 0000.0001)                 3.054938506199550E+07,      /* K =  4 */
(PID.TID 0000.0001)                 2.529386571176200E+07,      /* K =  5 */
(PID.TID 0000.0001)                 2.055861297691200E+07,      /* K =  6 */
(PID.TID 0000.0001)                 1.634062963636650E+07,      /* K =  7 */
(PID.TID 0000.0001)                 1.263720285714050E+07,      /* K =  8 */
(PID.TID 0000.0001)                 9.445916997983005E+06,      /* K =  9 */
(PID.TID 0000.0001)                 6.764664942628005E+06,      /* K = 10 */
(PID.TID 0000.0001)                 4.591657932111004E+06,      /* K = 11 */
(PID.TID 0000.0001)                 2.925433871632004E+06,      /* K = 12 */
(PID.TID 0000.0001)                 1.714432094064004E+06,      /* K = 13 */
(PID.TID 0000.0001)                 8.570492062405043E+05,      /* K = 14 */
(PID.TID 0000.0001)                 2.520448467505043E+05       /* K = 15 */
(PID.TID 0000.0001)     ;
(PID.TID 0000.0001) rF =   /* W-Interf. R coordinate (  units of r ) */
(PID.TID 0000.0001)                 5.302312256608400E+07,      /* K =  1 */
(PID.TID 0000.0001)                 4.591982184606300E+07,      /* K =  2 */
(PID.TID 0000.0001)                 3.934927340527300E+07,      /* K =  3 */
(PID.TID 0000.0001)                 3.330760339502400E+07,      /* K =  4 */
(PID.TID 0000.0001)                 2.779116672896700E+07,      /* K =  5 */
(PID.TID 0000.0001)                 2.279656469455700E+07,      /* K =  6 */
(PID.TID 0000.0001)                 1.832066125926699E+07,      /* K =  7 */
(PID.TID 0000.0001)                 1.436059801346599E+07,      /* K =  8 */
(PID.TID 0000.0001)                 1.091380770081500E+07,      /* K =  9 */
(PID.TID 0000.0001)                 7.978026295150995E+06,      /* K = 10 */
(PID.TID 0000.0001)                 5.551303590104995E+06,      /* K = 11 */
(PID.TID 0000.0001)                 3.632012274116995E+06,      /* K = 12 */
(PID.TID 0000.0001)                 2.218855469146995E+06,      /* K = 13 */
(PID.TID 0000.0001)                 1.210008718980995E+06,      /* K = 14 */
(PID.TID 0000.0001)                 5.040896934999955E+05,      /* K = 15 */
(PID.TID 0000.0001)                 9.955256246030331E-07       /* K = 16 */
(PID.TID 0000.0001)     ;
(PID.TID 0000.0001) deepFacC = /* deep-model grid factor @ cell-Center (-) */
(PID.TID 0000.0001)    15 @  1.000000000000000E+00              /* K =  1: 15 */
(PID.TID 0000.0001)     ;
(PID.TID 0000.0001) deepFacF = /* deep-model grid factor @ W-Interface (-) */
(PID.TID 0000.0001)    16 @  1.000000000000000E+00              /* K =  1: 16 */
(PID.TID 0000.0001)     ;
(PID.TID 0000.0001) rVel2wUnit = /* convert units: rVel -> wSpeed (=1 if z-coord)*/
(PID.TID 0000.0001)                 9.741857413830955E-05,      /* K =  1 */
(PID.TID 0000.0001)                 9.767560854698387E-05,      /* K =  2 */
(PID.TID 0000.0001)                 9.791810961961699E-05,      /* K =  3 */
(PID.TID 0000.0001)                 9.814523044582380E-05,      /* K =  4 */
(PID.TID 0000.0001)                 9.835616206441658E-05,      /* K =  5 */
(PID.TID 0000.0001)                 9.855013950127949E-05,      /* K =  6 */
(PID.TID 0000.0001)                 9.872644762905337E-05,      /* K =  7 */
(PID.TID 0000.0001)                 9.888442677437525E-05,      /* K =  8 */
(PID.TID 0000.0001)                 9.902347799921741E-05,      /* K =  9 */
(PID.TID 0000.0001)                 9.914306798509472E-05,      /* K = 10 */
(PID.TID 0000.0001)                 9.924273345256813E-05,      /* K = 11 */
(PID.TID 0000.0001)                 9.932208505354885E-05,      /* K = 12 */
(PID.TID 0000.0001)                 9.938081068032788E-05,      /* K = 13 */
(PID.TID 0000.0001)                 9.942289122372219E-05,      /* K = 14 */
(PID.TID 0000.0001)                 9.945241412037006E-05,      /* K = 15 */
(PID.TID 0000.0001)                 9.947353552744130E-05       /* K = 16 */
(PID.TID 0000.0001)     ;
(PID.TID 0000.0001) wUnit2rVel = /* convert units: wSpeed -> rVel (=1 if z-coord)*/
(PID.TID 0000.0001)                 1.026498292389555E+04,      /* K =  1 */
(PID.TID 0000.0001)                 1.023797051153237E+04,      /* K =  2 */
(PID.TID 0000.0001)                 1.021261545882274E+04,      /* K =  3 */
(PID.TID 0000.0001)                 1.018898213858696E+04,      /* K =  4 */
(PID.TID 0000.0001)                 1.016713115895136E+04,      /* K =  5 */
(PID.TID 0000.0001)                 1.014711907117104E+04,      /* K =  6 */
(PID.TID 0000.0001)                 1.012899809539707E+04,      /* K =  7 */
(PID.TID 0000.0001)                 1.011281586615961E+04,      /* K =  8 */
(PID.TID 0000.0001)                 1.009861519919451E+04,      /* K =  9 */
(PID.TID 0000.0001)                 1.008643388108931E+04,      /* K = 10 */
(PID.TID 0000.0001)                 1.007630448306765E+04,      /* K = 11 */
(PID.TID 0000.0001)                 1.006825420006896E+04,      /* K = 12 */
(PID.TID 0000.0001)                 1.006230471611505E+04,      /* K = 13 */
(PID.TID 0000.0001)                 1.005804586541134E+04,      /* K = 14 */
(PID.TID 0000.0001)                 1.005506008923697E+04,      /* K = 15 */
(PID.TID 0000.0001)                 1.005292507899385E+04       /* K = 16 */
(PID.TID 0000.0001)     ;
(PID.TID 0000.0001) dBdrRef = /* Vertical grad. of reference buoyancy [(m/s/r)^2] */
(PID.TID 0000.0001)    15 @  0.000000000000000E+00              /* K =  1: 15 */
(PID.TID 0000.0001)     ;
(PID.TID 0000.0001) rotateGrid = /* use rotated grid ( True/False ) */
(PID.TID 0000.0001)                   F
(PID.TID 0000.0001)     ;
(PID.TID 0000.0001) phiEuler = /* Euler angle, rotation about original z-coordinate [rad] */
(PID.TID 0000.0001)                 0.000000000000000E+00
(PID.TID 0000.0001)     ;
(PID.TID 0000.0001) thetaEuler = /* Euler angle, rotation about new x-coordinate [rad] */
(PID.TID 0000.0001)                 0.000000000000000E+00
(PID.TID 0000.0001)     ;
(PID.TID 0000.0001) psiEuler = /* Euler angle, rotation about new z-coordinate [rad] */
(PID.TID 0000.0001)                 0.000000000000000E+00
(PID.TID 0000.0001)     ;
(PID.TID 0000.0001) dxF =  /* dxF(:,1,:,1) ( units: m ) */
(PID.TID 0000.0001)    90 @  9.246038586187513E+04              /* I =  1: 90 */
(PID.TID 0000.0001)     ;
(PID.TID 0000.0001) dxF =  /* dxF(1,:,1,:) ( units: m ) */
(PID.TID 0000.0001)                 9.246038586187513E+04,      /* J =  1 */
(PID.TID 0000.0001)                 1.225786591246834E+05,      /* J =  2 */
(PID.TID 0000.0001)                 1.520997414818001E+05,      /* J =  3 */
(PID.TID 0000.0001)                 1.808798091874300E+05,      /* J =  4 */
(PID.TID 0000.0001)                 2.087786486446736E+05,      /* J =  5 */
(PID.TID 0000.0001)                 2.356603395120765E+05,      /* J =  6 */
(PID.TID 0000.0001)                 2.613939168938713E+05,      /* J =  7 */
(PID.TID 0000.0001)                 2.858540093877838E+05,      /* J =  8 */
(PID.TID 0000.0001)                 3.089214498819034E+05,      /* J =  9 */
(PID.TID 0000.0001)                 3.304838561248741E+05,      /* J = 10 */
(PID.TID 0000.0001)                 3.504361782409254E+05,      /* J = 11 */
(PID.TID 0000.0001)                 3.686812105223082E+05,      /* J = 12 */
(PID.TID 0000.0001)                 3.851300650057323E+05,      /* J = 13 */
(PID.TID 0000.0001)                 3.997026045255871E+05,      /* J = 14 */
(PID.TID 0000.0001)                 4.123278331341585E+05,      /* J = 15 */
(PID.TID 0000.0001)                 4.229442419867491E+05,      /* J = 16 */
(PID.TID 0000.0001)                 4.315001090065870E+05,      /* J = 17 */
(PID.TID 0000.0001)                 4.379537508695838E+05,      /* J = 18 */
(PID.TID 0000.0001)                 4.422737260813012E+05,      /* J = 19 */
(PID.TID 0000.0001)     2 @  4.444389881567502E+05,             /* J = 20: 21 */
(PID.TID 0000.0001)                 4.422737260813012E+05,      /* J = 22 */
(PID.TID 0000.0001)                 4.379537508695838E+05,      /* J = 23 */
(PID.TID 0000.0001)                 4.315001090065870E+05,      /* J = 24 */
(PID.TID 0000.0001)                 4.229442419867491E+05,      /* J = 25 */
(PID.TID 0000.0001)                 4.123278331341585E+05,      /* J = 26 */
(PID.TID 0000.0001)                 3.997026045255871E+05,      /* J = 27 */
(PID.TID 0000.0001)                 3.851300650057323E+05,      /* J = 28 */
(PID.TID 0000.0001)                 3.686812105223082E+05,      /* J = 29 */
(PID.TID 0000.0001)                 3.504361782409254E+05,      /* J = 30 */
(PID.TID 0000.0001)                 3.304838561248741E+05,      /* J = 31 */
(PID.TID 0000.0001)                 3.089214498819034E+05,      /* J = 32 */
(PID.TID 0000.0001)                 2.858540093877838E+05,      /* J = 33 */
(PID.TID 0000.0001)                 2.613939168938713E+05,      /* J = 34 */
(PID.TID 0000.0001)                 2.356603395120765E+05,      /* J = 35 */
(PID.TID 0000.0001)                 2.087786486446736E+05,      /* J = 36 */
(PID.TID 0000.0001)                 1.808798091874300E+05,      /* J = 37 */
(PID.TID 0000.0001)                 1.520997414818001E+05,      /* J = 38 */
(PID.TID 0000.0001)                 1.225786591246834E+05,      /* J = 39 */
(PID.TID 0000.0001)                 9.246038586187513E+04       /* J = 40 */
(PID.TID 0000.0001)     ;
(PID.TID 0000.0001) dyF =  /* dyF(:,1,:,1) ( units: m ) */
(PID.TID 0000.0001)    90 @  4.447098934081552E+05              /* I =  1: 90 */
(PID.TID 0000.0001)     ;
(PID.TID 0000.0001) dyF =  /* dyF(1,:,1,:) ( units: m ) */
(PID.TID 0000.0001)    40 @  4.447098934081552E+05              /* J =  1: 40 */
(PID.TID 0000.0001)     ;
(PID.TID 0000.0001) dxG =  /* dxG(:,1,:,1) ( units: m ) */
(PID.TID 0000.0001)    90 @  7.722306258078101E+04              /* I =  1: 90 */
(PID.TID 0000.0001)     ;
(PID.TID 0000.0001) dxG =  /* dxG(1,:,1,:) ( units: m ) */
(PID.TID 0000.0001)                 7.722306258078101E+04,      /* J =  1 */
(PID.TID 0000.0001)                 1.075850604052271E+05,      /* J =  2 */
(PID.TID 0000.0001)                 1.374229146297914E+05,      /* J =  3 */
(PID.TID 0000.0001)                 1.665912582279823E+05,      /* J =  4 */
(PID.TID 0000.0001)                 1.949479859617814E+05,      /* J =  5 */
(PID.TID 0000.0001)                 2.223549467040777E+05,      /* J =  6 */
(PID.TID 0000.0001)                 2.486786164970726E+05,      /* J =  7 */
(PID.TID 0000.0001)                 2.737907490675810E+05,      /* J =  8 */
(PID.TID 0000.0001)                 2.975690006299821E+05,      /* J =  9 */
(PID.TID 0000.0001)                 3.198975259328452E+05,      /* J = 10 */
(PID.TID 0000.0001)                 3.406675426453503E+05,      /* J = 11 */
(PID.TID 0000.0001)                 3.597778613338690E+05,      /* J = 12 */
(PID.TID 0000.0001)                 3.771353784467131E+05,      /* J = 13 */
(PID.TID 0000.0001)                 3.926555299052806E+05,      /* J = 14 */
(PID.TID 0000.0001)                 4.062627030917454E+05,      /* J = 15 */
(PID.TID 0000.0001)                 4.178906052261313E+05,      /* J = 16 */
(PID.TID 0000.0001)                 4.274825863380723E+05,      /* J = 17 */
(PID.TID 0000.0001)                 4.349919152597734E+05,      /* J = 18 */
(PID.TID 0000.0001)                 4.403820072955634E+05,      /* J = 19 */
(PID.TID 0000.0001)                 4.436266024588540E+05,      /* J = 20 */
(PID.TID 0000.0001)                 4.447098934081552E+05,      /* J = 21 */
(PID.TID 0000.0001)                 4.436266024588540E+05,      /* J = 22 */
(PID.TID 0000.0001)                 4.403820072955634E+05,      /* J = 23 */
(PID.TID 0000.0001)                 4.349919152597734E+05,      /* J = 24 */
(PID.TID 0000.0001)                 4.274825863380723E+05,      /* J = 25 */
(PID.TID 0000.0001)                 4.178906052261313E+05,      /* J = 26 */
(PID.TID 0000.0001)                 4.062627030917454E+05,      /* J = 27 */
(PID.TID 0000.0001)                 3.926555299052806E+05,      /* J = 28 */
(PID.TID 0000.0001)                 3.771353784467131E+05,      /* J = 29 */
(PID.TID 0000.0001)                 3.597778613338690E+05,      /* J = 30 */
(PID.TID 0000.0001)                 3.406675426453503E+05,      /* J = 31 */
(PID.TID 0000.0001)                 3.198975259328452E+05,      /* J = 32 */
(PID.TID 0000.0001)                 2.975690006299821E+05,      /* J = 33 */
(PID.TID 0000.0001)                 2.737907490675810E+05,      /* J = 34 */
(PID.TID 0000.0001)                 2.486786164970726E+05,      /* J = 35 */
(PID.TID 0000.0001)                 2.223549467040777E+05,      /* J = 36 */
(PID.TID 0000.0001)                 1.949479859617814E+05,      /* J = 37 */
(PID.TID 0000.0001)                 1.665912582279823E+05,      /* J = 38 */
(PID.TID 0000.0001)                 1.374229146297914E+05,      /* J = 39 */
(PID.TID 0000.0001)                 1.075850604052271E+05       /* J = 40 */
(PID.TID 0000.0001)     ;
(PID.TID 0000.0001) dyG =  /* dyG(:,1,:,1) ( units: m ) */
(PID.TID 0000.0001)    90 @  4.447098934081552E+05              /* I =  1: 90 */
(PID.TID 0000.0001)     ;
(PID.TID 0000.0001) dyG =  /* dyG(1,:,1,:) ( units: m ) */
(PID.TID 0000.0001)    40 @  4.447098934081552E+05              /* J =  1: 40 */
(PID.TID 0000.0001)     ;
(PID.TID 0000.0001) dxC =  /* dxC(:,1,:,1) ( units: m ) */
(PID.TID 0000.0001)    90 @  9.246038586187513E+04              /* I =  1: 90 */
(PID.TID 0000.0001)     ;
(PID.TID 0000.0001) dxC =  /* dxC(1,:,1,:) ( units: m ) */
(PID.TID 0000.0001)                 9.246038586187513E+04,      /* J =  1 */
(PID.TID 0000.0001)                 1.225786591246834E+05,      /* J =  2 */
(PID.TID 0000.0001)                 1.520997414818001E+05,      /* J =  3 */
(PID.TID 0000.0001)                 1.808798091874300E+05,      /* J =  4 */
(PID.TID 0000.0001)                 2.087786486446736E+05,      /* J =  5 */
(PID.TID 0000.0001)                 2.356603395120765E+05,      /* J =  6 */
(PID.TID 0000.0001)                 2.613939168938713E+05,      /* J =  7 */
(PID.TID 0000.0001)                 2.858540093877838E+05,      /* J =  8 */
(PID.TID 0000.0001)                 3.089214498819034E+05,      /* J =  9 */
(PID.TID 0000.0001)                 3.304838561248741E+05,      /* J = 10 */
(PID.TID 0000.0001)                 3.504361782409254E+05,      /* J = 11 */
(PID.TID 0000.0001)                 3.686812105223082E+05,      /* J = 12 */
(PID.TID 0000.0001)                 3.851300650057323E+05,      /* J = 13 */
(PID.TID 0000.0001)                 3.997026045255871E+05,      /* J = 14 */
(PID.TID 0000.0001)                 4.123278331341585E+05,      /* J = 15 */
(PID.TID 0000.0001)                 4.229442419867491E+05,      /* J = 16 */
(PID.TID 0000.0001)                 4.315001090065870E+05,      /* J = 17 */
(PID.TID 0000.0001)                 4.379537508695838E+05,      /* J = 18 */
(PID.TID 0000.0001)                 4.422737260813012E+05,      /* J = 19 */
(PID.TID 0000.0001)     2 @  4.444389881567502E+05,             /* J = 20: 21 */
(PID.TID 0000.0001)                 4.422737260813012E+05,      /* J = 22 */
(PID.TID 0000.0001)                 4.379537508695838E+05,      /* J = 23 */
(PID.TID 0000.0001)                 4.315001090065870E+05,      /* J = 24 */
(PID.TID 0000.0001)                 4.229442419867491E+05,      /* J = 25 */
(PID.TID 0000.0001)                 4.123278331341585E+05,      /* J = 26 */
(PID.TID 0000.0001)                 3.997026045255871E+05,      /* J = 27 */
(PID.TID 0000.0001)                 3.851300650057323E+05,      /* J = 28 */
(PID.TID 0000.0001)                 3.686812105223082E+05,      /* J = 29 */
(PID.TID 0000.0001)                 3.504361782409254E+05,      /* J = 30 */
(PID.TID 0000.0001)                 3.304838561248741E+05,      /* J = 31 */
(PID.TID 0000.0001)                 3.089214498819034E+05,      /* J = 32 */
(PID.TID 0000.0001)                 2.858540093877838E+05,      /* J = 33 */
(PID.TID 0000.0001)                 2.613939168938713E+05,      /* J = 34 */
(PID.TID 0000.0001)                 2.356603395120765E+05,      /* J = 35 */
(PID.TID 0000.0001)                 2.087786486446736E+05,      /* J = 36 */
(PID.TID 0000.0001)                 1.808798091874300E+05,      /* J = 37 */
(PID.TID 0000.0001)                 1.520997414818001E+05,      /* J = 38 */
(PID.TID 0000.0001)                 1.225786591246834E+05,      /* J = 39 */
(PID.TID 0000.0001)                 9.246038586187513E+04       /* J = 40 */
(PID.TID 0000.0001)     ;
(PID.TID 0000.0001) dyC =  /* dyC(:,1,:,1) ( units: m ) */
(PID.TID 0000.0001)    90 @  4.447098934081552E+05              /* I =  1: 90 */
(PID.TID 0000.0001)     ;
(PID.TID 0000.0001) dyC =  /* dyC(1,:,1,:) ( units: m ) */
(PID.TID 0000.0001)    40 @  4.447098934081552E+05              /* J =  1: 40 */
(PID.TID 0000.0001)     ;
(PID.TID 0000.0001) dxV =  /* dxV(:,1,:,1) ( units: m ) */
(PID.TID 0000.0001)    90 @  7.722306258078101E+04              /* I =  1: 90 */
(PID.TID 0000.0001)     ;
(PID.TID 0000.0001) dxV =  /* dxV(1,:,1,:) ( units: m ) */
(PID.TID 0000.0001)                 7.722306258078101E+04,      /* J =  1 */
(PID.TID 0000.0001)                 1.075850604052271E+05,      /* J =  2 */
(PID.TID 0000.0001)                 1.374229146297914E+05,      /* J =  3 */
(PID.TID 0000.0001)                 1.665912582279823E+05,      /* J =  4 */
(PID.TID 0000.0001)                 1.949479859617814E+05,      /* J =  5 */
(PID.TID 0000.0001)                 2.223549467040777E+05,      /* J =  6 */
(PID.TID 0000.0001)                 2.486786164970726E+05,      /* J =  7 */
(PID.TID 0000.0001)                 2.737907490675810E+05,      /* J =  8 */
(PID.TID 0000.0001)                 2.975690006299821E+05,      /* J =  9 */
(PID.TID 0000.0001)                 3.198975259328452E+05,      /* J = 10 */
(PID.TID 0000.0001)                 3.406675426453503E+05,      /* J = 11 */
(PID.TID 0000.0001)                 3.597778613338690E+05,      /* J = 12 */
(PID.TID 0000.0001)                 3.771353784467131E+05,      /* J = 13 */
(PID.TID 0000.0001)                 3.926555299052806E+05,      /* J = 14 */
(PID.TID 0000.0001)                 4.062627030917454E+05,      /* J = 15 */
(PID.TID 0000.0001)                 4.178906052261313E+05,      /* J = 16 */
(PID.TID 0000.0001)                 4.274825863380723E+05,      /* J = 17 */
(PID.TID 0000.0001)                 4.349919152597734E+05,      /* J = 18 */
(PID.TID 0000.0001)                 4.403820072955634E+05,      /* J = 19 */
(PID.TID 0000.0001)                 4.436266024588540E+05,      /* J = 20 */
(PID.TID 0000.0001)                 4.447098934081552E+05,      /* J = 21 */
(PID.TID 0000.0001)                 4.436266024588540E+05,      /* J = 22 */
(PID.TID 0000.0001)                 4.403820072955634E+05,      /* J = 23 */
(PID.TID 0000.0001)                 4.349919152597734E+05,      /* J = 24 */
(PID.TID 0000.0001)                 4.274825863380723E+05,      /* J = 25 */
(PID.TID 0000.0001)                 4.178906052261313E+05,      /* J = 26 */
(PID.TID 0000.0001)                 4.062627030917454E+05,      /* J = 27 */
(PID.TID 0000.0001)                 3.926555299052806E+05,      /* J = 28 */
(PID.TID 0000.0001)                 3.771353784467131E+05,      /* J = 29 */
(PID.TID 0000.0001)                 3.597778613338690E+05,      /* J = 30 */
(PID.TID 0000.0001)                 3.406675426453503E+05,      /* J = 31 */
(PID.TID 0000.0001)                 3.198975259328452E+05,      /* J = 32 */
(PID.TID 0000.0001)                 2.975690006299821E+05,      /* J = 33 */
(PID.TID 0000.0001)                 2.737907490675810E+05,      /* J = 34 */
(PID.TID 0000.0001)                 2.486786164970726E+05,      /* J = 35 */
(PID.TID 0000.0001)                 2.223549467040777E+05,      /* J = 36 */
(PID.TID 0000.0001)                 1.949479859617814E+05,      /* J = 37 */
(PID.TID 0000.0001)                 1.665912582279823E+05,      /* J = 38 */
(PID.TID 0000.0001)                 1.374229146297914E+05,      /* J = 39 */
(PID.TID 0000.0001)                 1.075850604052271E+05       /* J = 40 */
(PID.TID 0000.0001)     ;
(PID.TID 0000.0001) dyU =  /* dyU(:,1,:,1) ( units: m ) */
(PID.TID 0000.0001)    90 @  4.447098934081552E+05              /* I =  1: 90 */
(PID.TID 0000.0001)     ;
(PID.TID 0000.0001) dyU =  /* dyU(1,:,1,:) ( units: m ) */
(PID.TID 0000.0001)    40 @  4.447098934081552E+05              /* J =  1: 40 */
(PID.TID 0000.0001)     ;
(PID.TID 0000.0001) rA  =  /* rA (:,1,:,1) ( units: m^2 ) */
(PID.TID 0000.0001)    90 @  4.110969866729047E+10              /* I =  1: 90 */
(PID.TID 0000.0001)     ;
(PID.TID 0000.0001) rA  =  /* rA (1,:,1,:) ( units: m^2 ) */
(PID.TID 0000.0001)                 4.110969866729047E+10,      /* J =  1 */
(PID.TID 0000.0001)                 5.450087291636665E+10,      /* J =  2 */
(PID.TID 0000.0001)                 6.762652439100235E+10,      /* J =  3 */
(PID.TID 0000.0001)                 8.042270623659998E+10,      /* J =  4 */
(PID.TID 0000.0001)                 9.282707674147523E+10,      /* J =  5 */
(PID.TID 0000.0001)                 1.047792030594103E+11,      /* J =  6 */
(PID.TID 0000.0001)                 1.162208556324093E+11,      /* J =  7 */
(PID.TID 0000.0001)                 1.270962918792468E+11,      /* J =  8 */
(PID.TID 0000.0001)                 1.373525277677229E+11,      /* J =  9 */
(PID.TID 0000.0001)                 1.469395959475426E+11,      /* J = 10 */
(PID.TID 0000.0001)                 1.558107891862220E+11,      /* J = 11 */
(PID.TID 0000.0001)                 1.639228879220326E+11,      /* J = 12 */
(PID.TID 0000.0001)                 1.712363708253573E+11,      /* J = 13 */
(PID.TID 0000.0001)                 1.777156073426415E+11,      /* J = 14 */
(PID.TID 0000.0001)                 1.833290312848623E+11,      /* J = 15 */
(PID.TID 0000.0001)                 1.880492946148330E+11,      /* J = 16 */
(PID.TID 0000.0001)                 1.918534006840893E+11,      /* J = 17 */
(PID.TID 0000.0001)                 1.947228162702492E+11,      /* J = 18 */
(PID.TID 0000.0001)                 1.966435618690094E+11,      /* J = 19 */
(PID.TID 0000.0001)     2 @  1.976062798008856E+11,             /* J = 20: 21 */
(PID.TID 0000.0001)                 1.966435618690094E+11,      /* J = 22 */
(PID.TID 0000.0001)                 1.947228162702492E+11,      /* J = 23 */
(PID.TID 0000.0001)                 1.918534006840893E+11,      /* J = 24 */
(PID.TID 0000.0001)                 1.880492946148330E+11,      /* J = 25 */
(PID.TID 0000.0001)                 1.833290312848623E+11,      /* J = 26 */
(PID.TID 0000.0001)                 1.777156073426415E+11,      /* J = 27 */
(PID.TID 0000.0001)                 1.712363708253573E+11,      /* J = 28 */
(PID.TID 0000.0001)                 1.639228879220326E+11,      /* J = 29 */
(PID.TID 0000.0001)                 1.558107891862220E+11,      /* J = 30 */
(PID.TID 0000.0001)                 1.469395959475426E+11,      /* J = 31 */
(PID.TID 0000.0001)                 1.373525277677229E+11,      /* J = 32 */
(PID.TID 0000.0001)                 1.270962918792468E+11,      /* J = 33 */
(PID.TID 0000.0001)                 1.162208556324093E+11,      /* J = 34 */
(PID.TID 0000.0001)                 1.047792030594103E+11,      /* J = 35 */
(PID.TID 0000.0001)                 9.282707674147523E+10,      /* J = 36 */
(PID.TID 0000.0001)                 8.042270623659998E+10,      /* J = 37 */
(PID.TID 0000.0001)                 6.762652439100235E+10,      /* J = 38 */
(PID.TID 0000.0001)                 5.450087291636665E+10,      /* J = 39 */
(PID.TID 0000.0001)                 4.110969866729047E+10       /* J = 40 */
(PID.TID 0000.0001)     ;
(PID.TID 0000.0001) rAw =  /* rAw(:,1,:,1) ( units: m^2 ) */
(PID.TID 0000.0001)    90 @  4.110969866729047E+10              /* I =  1: 90 */
(PID.TID 0000.0001)     ;
(PID.TID 0000.0001) rAw =  /* rAw(1,:,1,:) ( units: m^2 ) */
(PID.TID 0000.0001)                 4.110969866729047E+10,      /* J =  1 */
(PID.TID 0000.0001)                 5.450087291636665E+10,      /* J =  2 */
(PID.TID 0000.0001)                 6.762652439100235E+10,      /* J =  3 */
(PID.TID 0000.0001)                 8.042270623659998E+10,      /* J =  4 */
(PID.TID 0000.0001)                 9.282707674147523E+10,      /* J =  5 */
(PID.TID 0000.0001)                 1.047792030594103E+11,      /* J =  6 */
(PID.TID 0000.0001)                 1.162208556324093E+11,      /* J =  7 */
(PID.TID 0000.0001)                 1.270962918792468E+11,      /* J =  8 */
(PID.TID 0000.0001)                 1.373525277677229E+11,      /* J =  9 */
(PID.TID 0000.0001)                 1.469395959475426E+11,      /* J = 10 */
(PID.TID 0000.0001)                 1.558107891862220E+11,      /* J = 11 */
(PID.TID 0000.0001)                 1.639228879220326E+11,      /* J = 12 */
(PID.TID 0000.0001)                 1.712363708253573E+11,      /* J = 13 */
(PID.TID 0000.0001)                 1.777156073426415E+11,      /* J = 14 */
(PID.TID 0000.0001)                 1.833290312848623E+11,      /* J = 15 */
(PID.TID 0000.0001)                 1.880492946148330E+11,      /* J = 16 */
(PID.TID 0000.0001)                 1.918534006840893E+11,      /* J = 17 */
(PID.TID 0000.0001)                 1.947228162702492E+11,      /* J = 18 */
(PID.TID 0000.0001)                 1.966435618690094E+11,      /* J = 19 */
(PID.TID 0000.0001)     2 @  1.976062798008856E+11,             /* J = 20: 21 */
(PID.TID 0000.0001)                 1.966435618690094E+11,      /* J = 22 */
(PID.TID 0000.0001)                 1.947228162702492E+11,      /* J = 23 */
(PID.TID 0000.0001)                 1.918534006840893E+11,      /* J = 24 */
(PID.TID 0000.0001)                 1.880492946148330E+11,      /* J = 25 */
(PID.TID 0000.0001)                 1.833290312848623E+11,      /* J = 26 */
(PID.TID 0000.0001)                 1.777156073426415E+11,      /* J = 27 */
(PID.TID 0000.0001)                 1.712363708253573E+11,      /* J = 28 */
(PID.TID 0000.0001)                 1.639228879220326E+11,      /* J = 29 */
(PID.TID 0000.0001)                 1.558107891862220E+11,      /* J = 30 */
(PID.TID 0000.0001)                 1.469395959475426E+11,      /* J = 31 */
(PID.TID 0000.0001)                 1.373525277677229E+11,      /* J = 32 */
(PID.TID 0000.0001)                 1.270962918792468E+11,      /* J = 33 */
(PID.TID 0000.0001)                 1.162208556324093E+11,      /* J = 34 */
(PID.TID 0000.0001)                 1.047792030594103E+11,      /* J = 35 */
(PID.TID 0000.0001)                 9.282707674147523E+10,      /* J = 36 */
(PID.TID 0000.0001)                 8.042270623659998E+10,      /* J = 37 */
(PID.TID 0000.0001)                 6.762652439100235E+10,      /* J = 38 */
(PID.TID 0000.0001)                 5.450087291636665E+10,      /* J = 39 */
(PID.TID 0000.0001)                 4.110969866729047E+10       /* J = 40 */
(PID.TID 0000.0001)     ;
(PID.TID 0000.0001) rAs =  /* rAs(:,1,:,1) ( units: m^2 ) */
(PID.TID 0000.0001)    90 @  3.433488626798250E+10              /* I =  1: 90 */
(PID.TID 0000.0001)     ;
(PID.TID 0000.0001) rAs =  /* rAs(1,:,1,:) ( units: m^2 ) */
(PID.TID 0000.0001)                 3.433488626798250E+10,      /* J =  1 */
(PID.TID 0000.0001)                 4.783442523123625E+10,      /* J =  2 */
(PID.TID 0000.0001)                 6.110091968306414E+10,      /* J =  3 */
(PID.TID 0000.0001)                 7.406973659603818E+10,      /* J =  4 */
(PID.TID 0000.0001)                 8.667769319778079E+10,      /* J =  5 */
(PID.TID 0000.0001)                 9.886336479107463E+10,      /* J =  6 */
(PID.TID 0000.0001)                 1.105673840088173E+11,      /* J =  7 */
(PID.TID 0000.0001)                 1.217327300458638E+11,      /* J =  8 */
(PID.TID 0000.0001)                 1.323050064586578E+11,      /* J =  9 */
(PID.TID 0000.0001)                 1.422327061792377E+11,      /* J = 10 */
(PID.TID 0000.0001)                 1.514674624524945E+11,      /* J = 11 */
(PID.TID 0000.0001)                 1.599642844741385E+11,      /* J = 12 */
(PID.TID 0000.0001)                 1.676817765813788E+11,      /* J = 13 */
(PID.TID 0000.0001)                 1.745823399284268E+11,      /* J = 14 */
(PID.TID 0000.0001)                 1.806323556642996E+11,      /* J = 15 */
(PID.TID 0000.0001)                 1.858023487204767E+11,      /* J = 16 */
(PID.TID 0000.0001)                 1.900671314104743E+11,      /* J = 17 */
(PID.TID 0000.0001)                 1.934059261417216E+11,      /* J = 18 */
(PID.TID 0000.0001)                 1.958024666419019E+11,      /* J = 19 */
(PID.TID 0000.0001)                 1.972450772065981E+11,      /* J = 20 */
(PID.TID 0000.0001)                 1.977267295821495E+11,      /* J = 21 */
(PID.TID 0000.0001)                 1.972450772065981E+11,      /* J = 22 */
(PID.TID 0000.0001)                 1.958024666419019E+11,      /* J = 23 */
(PID.TID 0000.0001)                 1.934059261417216E+11,      /* J = 24 */
(PID.TID 0000.0001)                 1.900671314104743E+11,      /* J = 25 */
(PID.TID 0000.0001)                 1.858023487204767E+11,      /* J = 26 */
(PID.TID 0000.0001)                 1.806323556642996E+11,      /* J = 27 */
(PID.TID 0000.0001)                 1.745823399284268E+11,      /* J = 28 */
(PID.TID 0000.0001)                 1.676817765813788E+11,      /* J = 29 */
(PID.TID 0000.0001)                 1.599642844741385E+11,      /* J = 30 */
(PID.TID 0000.0001)                 1.514674624524945E+11,      /* J = 31 */
(PID.TID 0000.0001)                 1.422327061792377E+11,      /* J = 32 */
(PID.TID 0000.0001)                 1.323050064586578E+11,      /* J = 33 */
(PID.TID 0000.0001)                 1.217327300458638E+11,      /* J = 34 */
(PID.TID 0000.0001)                 1.105673840088173E+11,      /* J = 35 */
(PID.TID 0000.0001)                 9.886336479107463E+10,      /* J = 36 */
(PID.TID 0000.0001)                 8.667769319778079E+10,      /* J = 37 */
(PID.TID 0000.0001)                 7.406973659603818E+10,      /* J = 38 */
(PID.TID 0000.0001)                 6.110091968306414E+10,      /* J = 39 */
(PID.TID 0000.0001)                 4.783442523123625E+10       /* J = 40 */
(PID.TID 0000.0001)     ;
(PID.TID 0000.0001) globalArea = /* Integrated horizontal Area (m^2) */
(PID.TID 0000.0001)                 3.444981130405358E+14
(PID.TID 0000.0001)     ;
(PID.TID 0000.0001) // =======================================================
(PID.TID 0000.0001) // End of Model config. summary
(PID.TID 0000.0001) // =======================================================
(PID.TID 0000.0001) 
(PID.TID 0000.0001) == Packages configuration : Check & print summary ==
(PID.TID 0000.0001) 
(PID.TID 0000.0001) GAD_CHECK: #define ALLOW_GENERIC_ADVDIFF
(PID.TID 0000.0001) // =======================================================
(PID.TID 0000.0001) // Check Model config. (CONFIG_CHECK):
(PID.TID 0000.0001) // CONFIG_CHECK : Normal End
(PID.TID 0000.0001) // =======================================================
(PID.TID 0000.0001) 
(PID.TID 0000.0001)  MDS_READ_FIELD: opening global file: lev_t.bin
(PID.TID 0000.0001)  MDS_READ_FIELD: opening global file: lev_s.bin
(PID.TID 0000.0001) Start initial hydrostatic pressure computation
(PID.TID 0000.0001) Pressure is predetermined for buoyancyRelation OCEANICP
(PID.TID 0000.0001) 
(PID.TID 0000.0001)  MDS_READ_FIELD: opening global file: trenberth_taux.bin
(PID.TID 0000.0001)  MDS_READ_FIELD: opening global file: trenberth_tauy.bin
(PID.TID 0000.0001)  MDS_READ_FIELD: opening global file: shi_qnet.bin
(PID.TID 0000.0001)  MDS_READ_FIELD: opening global file: shi_empmr.bin
(PID.TID 0000.0001)  MDS_READ_FIELD: opening global file: lev_sst.bin
(PID.TID 0000.0001)  MDS_READ_FIELD: opening global file: deltageopotjmd95.bin
(PID.TID 0000.0001) // =======================================================
(PID.TID 0000.0001) // Model current state
(PID.TID 0000.0001) // =======================================================
(PID.TID 0000.0001) 
(PID.TID 0000.0001) // =======================================================
(PID.TID 0000.0001) // Begin MONITOR dynamic field statistics
(PID.TID 0000.0001) // =======================================================
(PID.TID 0000.0001) %MON time_tsnumber                =                     0
(PID.TID 0000.0001) %MON time_secondsf                =   0.0000000000000E+00
(PID.TID 0000.0001) %MON dynstat_eta_max              =   0.0000000000000E+00
(PID.TID 0000.0001) %MON dynstat_eta_min              =   0.0000000000000E+00
(PID.TID 0000.0001) %MON dynstat_eta_mean             =   0.0000000000000E+00
(PID.TID 0000.0001) %MON dynstat_eta_sd               =   0.0000000000000E+00
(PID.TID 0000.0001) %MON dynstat_eta_del2             =   0.0000000000000E+00
(PID.TID 0000.0001) %MON dynstat_uvel_max             =   0.0000000000000E+00
(PID.TID 0000.0001) %MON dynstat_uvel_min             =   0.0000000000000E+00
(PID.TID 0000.0001) %MON dynstat_uvel_mean            =   0.0000000000000E+00
(PID.TID 0000.0001) %MON dynstat_uvel_sd              =   0.0000000000000E+00
(PID.TID 0000.0001) %MON dynstat_uvel_del2            =   0.0000000000000E+00
(PID.TID 0000.0001) %MON dynstat_vvel_max             =   0.0000000000000E+00
(PID.TID 0000.0001) %MON dynstat_vvel_min             =   0.0000000000000E+00
(PID.TID 0000.0001) %MON dynstat_vvel_mean            =   0.0000000000000E+00
(PID.TID 0000.0001) %MON dynstat_vvel_sd              =   0.0000000000000E+00
(PID.TID 0000.0001) %MON dynstat_vvel_del2            =   0.0000000000000E+00
(PID.TID 0000.0001) %MON dynstat_wvel_max             =  -0.0000000000000E+00
(PID.TID 0000.0001) %MON dynstat_wvel_min             =  -0.0000000000000E+00
(PID.TID 0000.0001) %MON dynstat_wvel_mean            =   0.0000000000000E+00
(PID.TID 0000.0001) %MON dynstat_wvel_sd              =   0.0000000000000E+00
(PID.TID 0000.0001) %MON dynstat_wvel_del2            =   0.0000000000000E+00
(PID.TID 0000.0001) %MON dynstat_theta_max            =   2.9733511003948E+01
(PID.TID 0000.0001) %MON dynstat_theta_min            =  -2.6263839329562E+00
(PID.TID 0000.0001) %MON dynstat_theta_mean           =   3.6018664655656E+00
(PID.TID 0000.0001) %MON dynstat_theta_sd             =   4.4018845380981E+00
(PID.TID 0000.0001) %MON dynstat_theta_del2           =   5.7770997867767E-03
(PID.TID 0000.0001) %MON dynstat_salt_max             =   3.7475629659304E+01
(PID.TID 0000.0001) %MON dynstat_salt_min             =   2.9752769471420E+01
(PID.TID 0000.0001) %MON dynstat_salt_mean            =   3.4718001015839E+01
(PID.TID 0000.0001) %MON dynstat_salt_sd              =   2.9462524950605E-01
(PID.TID 0000.0001) %MON dynstat_salt_del2            =   1.0382303854229E-03
(PID.TID 0000.0001) %MON forcing_qnet_max             =   4.7889539846945E+02
(PID.TID 0000.0001) %MON forcing_qnet_min             =  -2.1234592141945E+02
(PID.TID 0000.0001) %MON forcing_qnet_mean            =  -1.5407959491527E+01
(PID.TID 0000.0001) %MON forcing_qnet_sd              =   1.1749008355619E+02
(PID.TID 0000.0001) %MON forcing_qnet_del2            =   7.6292848491878E-01
(PID.TID 0000.0001) %MON forcing_qsw_max              =   0.0000000000000E+00
(PID.TID 0000.0001) %MON forcing_qsw_min              =   0.0000000000000E+00
(PID.TID 0000.0001) %MON forcing_qsw_mean             =   0.0000000000000E+00
(PID.TID 0000.0001) %MON forcing_qsw_sd               =   0.0000000000000E+00
(PID.TID 0000.0001) %MON forcing_qsw_del2             =   0.0000000000000E+00
(PID.TID 0000.0001) %MON forcing_empmr_max            =   5.2312924520654E-05
(PID.TID 0000.0001) %MON forcing_empmr_min            =  -1.3707940920787E-04
(PID.TID 0000.0001) %MON forcing_empmr_mean           =   4.0865136276267E-22
(PID.TID 0000.0001) %MON forcing_empmr_sd             =   2.3555038620025E-05
(PID.TID 0000.0001) %MON forcing_empmr_del2           =   2.4961915835152E-07
(PID.TID 0000.0001) %MON forcing_fu_max               =   2.7877888530287E-01
(PID.TID 0000.0001) %MON forcing_fu_min               =  -1.7088057632071E-01
(PID.TID 0000.0001) %MON forcing_fu_mean              =   1.6077639705783E-02
(PID.TID 0000.0001) %MON forcing_fu_sd                =   9.1121692265396E-02
(PID.TID 0000.0001) %MON forcing_fu_del2              =   7.1645420756246E-04
(PID.TID 0000.0001) %MON forcing_fv_max               =   2.3312132027950E-01
(PID.TID 0000.0001) %MON forcing_fv_min               =  -1.7813690234636E-01
(PID.TID 0000.0001) %MON forcing_fv_mean              =  -5.2123713348980E-03
(PID.TID 0000.0001) %MON forcing_fv_sd                =   4.8244503985680E-02
(PID.TID 0000.0001) %MON forcing_fv_del2              =   4.8353727932034E-04
(PID.TID 0000.0001) %MON advcfl_uvel_max              =   0.0000000000000E+00
(PID.TID 0000.0001) %MON advcfl_vvel_max              =   0.0000000000000E+00
(PID.TID 0000.0001) %MON advcfl_wvel_max              =   0.0000000000000E+00
(PID.TID 0000.0001) %MON advcfl_W_hf_max              =   0.0000000000000E+00
(PID.TID 0000.0001) %MON pe_b_mean                    =   0.0000000000000E+00
(PID.TID 0000.0001) %MON ke_max                       =   0.0000000000000E+00
(PID.TID 0000.0001) %MON ke_mean                      =   0.0000000000000E+00
(PID.TID 0000.0001) %MON ke_vol                       =   1.3442141716554E+22
(PID.TID 0000.0001) %MON vort_r_min                   =   0.0000000000000E+00
(PID.TID 0000.0001) %MON vort_r_max                   =   0.0000000000000E+00
(PID.TID 0000.0001) %MON vort_a_mean                  =  -2.4598205423362E-05
(PID.TID 0000.0001) %MON vort_a_sd                    =   7.3637181538742E-05
(PID.TID 0000.0001) %MON vort_p_mean                  =  -2.9470763764321E-05
(PID.TID 0000.0001) %MON vort_p_sd                    =   1.0360262032337E-04
(PID.TID 0000.0001) %MON surfExpan_theta_mean         =   0.0000000000000E+00
(PID.TID 0000.0001) %MON surfExpan_salt_mean          =   0.0000000000000E+00
(PID.TID 0000.0001) // =======================================================
(PID.TID 0000.0001) // End MONITOR dynamic field statistics
(PID.TID 0000.0001) // =======================================================
 EXTERNAL_FIELDS_LOAD,         0 : iP,iLd,i0,i1=   12    0   12    1 ; Wght=  0.5000000000  0.5000000000
 EXTERNAL_FIELDS_LOAD, it=         0 : Reading new data, i0,i1=   12    1 (prev=   12    0 )
(PID.TID 0000.0001)  MDS_READ_FIELD: opening global file: trenberth_taux.bin
(PID.TID 0000.0001)  MDS_READ_FIELD: opening global file: trenberth_taux.bin
(PID.TID 0000.0001)  MDS_READ_FIELD: opening global file: trenberth_tauy.bin
(PID.TID 0000.0001)  MDS_READ_FIELD: opening global file: trenberth_tauy.bin
(PID.TID 0000.0001)  MDS_READ_FIELD: opening global file: shi_qnet.bin
(PID.TID 0000.0001)  MDS_READ_FIELD: opening global file: shi_qnet.bin
(PID.TID 0000.0001)  MDS_READ_FIELD: opening global file: shi_empmr.bin
(PID.TID 0000.0001)  MDS_READ_FIELD: opening global file: shi_empmr.bin
(PID.TID 0000.0001)  MDS_READ_FIELD: opening global file: lev_sst.bin
(PID.TID 0000.0001)  MDS_READ_FIELD: opening global file: lev_sst.bin
(PID.TID 0000.0001)  MDS_READ_FIELD: opening global file: deltageopotjmd95.bin
(PID.TID 0000.0001)  MDS_READ_FIELD: opening global file: deltageopotjmd95.bin
(PID.TID 0000.0001) SOLVE_FOR_PRESSURE: putPmEinXvector =    F
 cg2d: Sum(rhs),rhsMax =  -2.67841304690819E-15  1.71163414373126E+02
(PID.TID 0000.0001)      cg2d_init_res =   9.36692383621740E+00
(PID.TID 0000.0001)      cg2d_iters(min,last) =      -1     107
(PID.TID 0000.0001)      cg2d_last_res =   9.62519078654205E-10
(PID.TID 0000.0001) // =======================================================
(PID.TID 0000.0001) // Begin MONITOR dynamic field statistics
(PID.TID 0000.0001) // =======================================================
(PID.TID 0000.0001) %MON time_tsnumber                =                     1
(PID.TID 0000.0001) %MON time_secondsf                =   1.7280000000000E+05
(PID.TID 0000.0001) %MON dynstat_eta_max              =   4.1656786839423E+04
(PID.TID 0000.0001) %MON dynstat_eta_min              =  -8.8276374725139E+04
(PID.TID 0000.0001) %MON dynstat_eta_mean             =  -9.8726863417398E-13
(PID.TID 0000.0001) %MON dynstat_eta_sd               =   3.6901397170278E+04
(PID.TID 0000.0001) %MON dynstat_eta_del2             =   2.0856467227143E+03
(PID.TID 0000.0001) %MON dynstat_uvel_max             =   3.5106109517859E-02
(PID.TID 0000.0001) %MON dynstat_uvel_min             =  -3.5372108944508E-02
(PID.TID 0000.0001) %MON dynstat_uvel_mean            =  -8.4135916903908E-04
(PID.TID 0000.0001) %MON dynstat_uvel_sd              =   2.2143004930635E-03
(PID.TID 0000.0001) %MON dynstat_uvel_del2            =   2.3793586526361E-05
(PID.TID 0000.0001) %MON dynstat_vvel_max             =   3.5008782265620E-02
(PID.TID 0000.0001) %MON dynstat_vvel_min             =  -2.4496142225806E-02
(PID.TID 0000.0001) %MON dynstat_vvel_mean            =   1.0871733172810E-03
(PID.TID 0000.0001) %MON dynstat_vvel_sd              =   2.2887791274522E-03
(PID.TID 0000.0001) %MON dynstat_vvel_del2            =   2.5440556997751E-05
(PID.TID 0000.0001) %MON dynstat_wvel_max             =   5.0250051231515E-01
(PID.TID 0000.0001) %MON dynstat_wvel_min             =  -6.2689518742399E-01
(PID.TID 0000.0001) %MON dynstat_wvel_mean            =  -6.6716894910155E-03
(PID.TID 0000.0001) %MON dynstat_wvel_sd              =   1.5353611024476E-01
(PID.TID 0000.0001) %MON dynstat_wvel_del2            =   1.7671817735107E-03
(PID.TID 0000.0001) %MON dynstat_theta_max            =   2.9711296896544E+01
(PID.TID 0000.0001) %MON dynstat_theta_min            =  -2.6183665629211E+00
(PID.TID 0000.0001) %MON dynstat_theta_mean           =   3.6019879855479E+00
(PID.TID 0000.0001) %MON dynstat_theta_sd             =   4.4015171771318E+00
(PID.TID 0000.0001) %MON dynstat_theta_del2           =   5.7674232155852E-03
(PID.TID 0000.0001) %MON dynstat_salt_max             =   3.7478619291182E+01
(PID.TID 0000.0001) %MON dynstat_salt_min             =   2.9762213851610E+01
(PID.TID 0000.0001) %MON dynstat_salt_mean            =   3.4718001015839E+01
(PID.TID 0000.0001) %MON dynstat_salt_sd              =   2.9451023794301E-01
(PID.TID 0000.0001) %MON dynstat_salt_del2            =   1.0393013005828E-03
(PID.TID 0000.0001) %MON forcing_qnet_max             =   4.4145258709576E+02
(PID.TID 0000.0001) %MON forcing_qnet_min             =  -2.2440550854923E+02
(PID.TID 0000.0001) %MON forcing_qnet_mean            =  -1.5958423861174E+01
(PID.TID 0000.0001) %MON forcing_qnet_sd              =   1.1936714639352E+02
(PID.TID 0000.0001) %MON forcing_qnet_del2            =   6.9568601022103E-01
(PID.TID 0000.0001) %MON forcing_qsw_max              =   0.0000000000000E+00
(PID.TID 0000.0001) %MON forcing_qsw_min              =   0.0000000000000E+00
(PID.TID 0000.0001) %MON forcing_qsw_mean             =   0.0000000000000E+00
(PID.TID 0000.0001) %MON forcing_qsw_sd               =   0.0000000000000E+00
(PID.TID 0000.0001) %MON forcing_qsw_del2             =   0.0000000000000E+00
(PID.TID 0000.0001) %MON forcing_empmr_max            =   5.2312924520654E-05
(PID.TID 0000.0001) %MON forcing_empmr_min            =  -1.3707940920787E-04
(PID.TID 0000.0001) %MON forcing_empmr_mean           =   4.0865136276267E-22
(PID.TID 0000.0001) %MON forcing_empmr_sd             =   2.3555038620025E-05
(PID.TID 0000.0001) %MON forcing_empmr_del2           =   2.4961915835152E-07
(PID.TID 0000.0001) %MON forcing_fu_max               =   2.7488999084141E-01
(PID.TID 0000.0001) %MON forcing_fu_min               =  -1.6014088069750E-01
(PID.TID 0000.0001) %MON forcing_fu_mean              =   1.6225461269972E-02
(PID.TID 0000.0001) %MON forcing_fu_sd                =   9.0178097883684E-02
(PID.TID 0000.0001) %MON forcing_fu_del2              =   6.4160979257353E-04
(PID.TID 0000.0001) %MON forcing_fv_max               =   2.0835298033582E-01
(PID.TID 0000.0001) %MON forcing_fv_min               =  -1.8690676624267E-01
(PID.TID 0000.0001) %MON forcing_fv_mean              =  -6.3112500932584E-03
(PID.TID 0000.0001) %MON forcing_fv_sd                =   4.5147209559071E-02
(PID.TID 0000.0001) %MON forcing_fv_del2              =   4.3058787478848E-04
(PID.TID 0000.0001) %MON advcfl_uvel_max              =   2.1979552871283E-02
(PID.TID 0000.0001) %MON advcfl_vvel_max              =   1.3603289841692E-02
(PID.TID 0000.0001) %MON advcfl_wvel_max              =   4.1332940427638E-02
(PID.TID 0000.0001) %MON advcfl_W_hf_max              =   5.0201445983040E-02
(PID.TID 0000.0001) %MON pe_b_mean                    =  -6.4368668120800E-03
(PID.TID 0000.0001) %MON ke_max                       =   5.7521020041948E-04
(PID.TID 0000.0001) %MON ke_mean                      =   5.4208464415534E-06
(PID.TID 0000.0001) %MON ke_vol                       =   1.3442141716554E+22
(PID.TID 0000.0001) %MON vort_r_min                   =  -1.1936131053981E-07
(PID.TID 0000.0001) %MON vort_r_max                   =   1.5595297437961E-07
(PID.TID 0000.0001) %MON vort_a_mean                  =  -2.4598205433957E-05
(PID.TID 0000.0001) %MON vort_a_sd                    =   7.3636984478817E-05
(PID.TID 0000.0001) %MON vort_p_mean                  =  -2.9470763777015E-05
(PID.TID 0000.0001) %MON vort_p_sd                    =   1.0360208227295E-04
(PID.TID 0000.0001) %MON surfExpan_theta_mean         =   6.7339858775841E-02
(PID.TID 0000.0001) %MON surfExpan_salt_mean          =  -2.2611127299667E-04
(PID.TID 0000.0001) // =======================================================
(PID.TID 0000.0001) // End MONITOR dynamic field statistics
(PID.TID 0000.0001) // =======================================================
 EXTERNAL_FIELDS_LOAD,         1 : iP,iLd,i0,i1=   12    1   12    1 ; Wght=  0.4333333333  0.5666666667
 cg2d: Sum(rhs),rhsMax =   1.44328993201270E-15  1.74491025527420E+02
(PID.TID 0000.0001)      cg2d_init_res =   2.46960963926057E-01
(PID.TID 0000.0001)      cg2d_iters(min,last) =      -1     100
(PID.TID 0000.0001)      cg2d_last_res =   8.93967094997386E-10
(PID.TID 0000.0001) // =======================================================
(PID.TID 0000.0001) // Begin MONITOR dynamic field statistics
(PID.TID 0000.0001) // =======================================================
(PID.TID 0000.0001) %MON time_tsnumber                =                     2
(PID.TID 0000.0001) %MON time_secondsf                =   3.4560000000000E+05
(PID.TID 0000.0001) %MON dynstat_eta_max              =   4.8731455355736E+04
(PID.TID 0000.0001) %MON dynstat_eta_min              =  -8.9511288588225E+04
(PID.TID 0000.0001) %MON dynstat_eta_mean             =   4.3878605963288E-13
(PID.TID 0000.0001) %MON dynstat_eta_sd               =   3.9631560776323E+04
(PID.TID 0000.0001) %MON dynstat_eta_del2             =   2.1451836189659E+03
(PID.TID 0000.0001) %MON dynstat_uvel_max             =   6.3304188209600E-02
(PID.TID 0000.0001) %MON dynstat_uvel_min             =  -4.0665544162753E-02
(PID.TID 0000.0001) %MON dynstat_uvel_mean            =  -1.1812090313306E-03
(PID.TID 0000.0001) %MON dynstat_uvel_sd              =   2.2830856724105E-03
(PID.TID 0000.0001) %MON dynstat_uvel_del2            =   2.7764256314409E-05
(PID.TID 0000.0001) %MON dynstat_vvel_max             =   5.1937721863664E-02
(PID.TID 0000.0001) %MON dynstat_vvel_min             =  -3.0731270669101E-02
(PID.TID 0000.0001) %MON dynstat_vvel_mean            =   1.5489355969045E-03
(PID.TID 0000.0001) %MON dynstat_vvel_sd              =   3.0000084993648E-03
(PID.TID 0000.0001) %MON dynstat_vvel_del2            =   3.2858562769400E-05
(PID.TID 0000.0001) %MON dynstat_wvel_max             =   6.3653987830057E-01
(PID.TID 0000.0001) %MON dynstat_wvel_min             =  -7.9093011336202E-01
(PID.TID 0000.0001) %MON dynstat_wvel_mean            =  -3.2534984251089E-03
(PID.TID 0000.0001) %MON dynstat_wvel_sd              =   8.9440823335706E-02
(PID.TID 0000.0001) %MON dynstat_wvel_del2            =   1.4668058560971E-03
(PID.TID 0000.0001) %MON dynstat_theta_max            =   2.9684508324331E+01
(PID.TID 0000.0001) %MON dynstat_theta_min            =  -2.6127577628499E+00
(PID.TID 0000.0001) %MON dynstat_theta_mean           =   3.6019391474411E+00
(PID.TID 0000.0001) %MON dynstat_theta_sd             =   4.4012383021214E+00
(PID.TID 0000.0001) %MON dynstat_theta_del2           =   5.7346981369420E-03
(PID.TID 0000.0001) %MON dynstat_salt_max             =   3.7481696365082E+01
(PID.TID 0000.0001) %MON dynstat_salt_min             =   2.9765601950131E+01
(PID.TID 0000.0001) %MON dynstat_salt_mean            =   3.4718001616647E+01
(PID.TID 0000.0001) %MON dynstat_salt_sd              =   2.9441682612944E-01
(PID.TID 0000.0001) %MON dynstat_salt_del2            =   1.0443748603288E-03
(PID.TID 0000.0001) %MON forcing_qnet_max             =   4.4097305510790E+02
(PID.TID 0000.0001) %MON forcing_qnet_min             =  -2.2101759470857E+02
(PID.TID 0000.0001) %MON forcing_qnet_mean            =  -1.5885028611888E+01
(PID.TID 0000.0001) %MON forcing_qnet_sd              =   1.1890885874093E+02
(PID.TID 0000.0001) %MON forcing_qnet_del2            =   6.9758199760840E-01
(PID.TID 0000.0001) %MON forcing_qsw_max              =   0.0000000000000E+00
(PID.TID 0000.0001) %MON forcing_qsw_min              =   0.0000000000000E+00
(PID.TID 0000.0001) %MON forcing_qsw_mean             =   0.0000000000000E+00
(PID.TID 0000.0001) %MON forcing_qsw_sd               =   0.0000000000000E+00
(PID.TID 0000.0001) %MON forcing_qsw_del2             =   0.0000000000000E+00
(PID.TID 0000.0001) %MON forcing_empmr_max            =   5.2312924520654E-05
(PID.TID 0000.0001) %MON forcing_empmr_min            =  -1.3707940920787E-04
(PID.TID 0000.0001) %MON forcing_empmr_mean           =   8.1730272552535E-22
(PID.TID 0000.0001) %MON forcing_empmr_sd             =   2.3555038620025E-05
(PID.TID 0000.0001) %MON forcing_empmr_del2           =   2.4961915835152E-07
(PID.TID 0000.0001) %MON forcing_fu_max               =   2.7317289557073E-01
(PID.TID 0000.0001) %MON forcing_fu_min               =  -1.6030611397112E-01
(PID.TID 0000.0001) %MON forcing_fu_mean              =   1.6205751728080E-02
(PID.TID 0000.0001) %MON forcing_fu_sd                =   9.0163314984710E-02
(PID.TID 0000.0001) %MON forcing_fu_del2              =   6.4499680240129E-04
(PID.TID 0000.0001) %MON forcing_fv_max               =   2.0930016589587E-01
(PID.TID 0000.0001) %MON forcing_fv_min               =  -1.8573745105650E-01
(PID.TID 0000.0001) %MON forcing_fv_mean              =  -6.1647329254770E-03
(PID.TID 0000.0001) %MON forcing_fv_sd                =   4.5369550755658E-02
(PID.TID 0000.0001) %MON forcing_fv_del2              =   4.3066747124620E-04
(PID.TID 0000.0001) %MON advcfl_uvel_max              =   3.3657685194060E-02
(PID.TID 0000.0001) %MON advcfl_vvel_max              =   2.0181332754394E-02
(PID.TID 0000.0001) %MON advcfl_wvel_max              =   5.3329968516368E-02
(PID.TID 0000.0001) %MON advcfl_W_hf_max              =   6.4772588304932E-02
(PID.TID 0000.0001) %MON pe_b_mean                    =  -7.1440179396359E-03
(PID.TID 0000.0001) %MON ke_max                       =   1.6949293700859E-03
(PID.TID 0000.0001) %MON ke_mean                      =   8.1035335446313E-06
(PID.TID 0000.0001) %MON ke_vol                       =   1.3442141716554E+22
(PID.TID 0000.0001) %MON vort_r_min                   =  -1.7529038513759E-07
(PID.TID 0000.0001) %MON vort_r_max                   =   1.8496502685678E-07
(PID.TID 0000.0001) %MON vort_a_mean                  =  -2.4598205548724E-05
(PID.TID 0000.0001) %MON vort_a_sd                    =   7.3636897954960E-05
(PID.TID 0000.0001) %MON vort_p_mean                  =  -2.9475837120942E-05
(PID.TID 0000.0001) %MON vort_p_sd                    =   1.0363025571819E-04
(PID.TID 0000.0001) %MON surfExpan_theta_mean         =   3.6310733900439E-02
(PID.TID 0000.0001) %MON surfExpan_salt_mean          =  -9.9567366108054E-05
(PID.TID 0000.0001) // =======================================================
(PID.TID 0000.0001) // End MONITOR dynamic field statistics
(PID.TID 0000.0001) // =======================================================
 EXTERNAL_FIELDS_LOAD,         2 : iP,iLd,i0,i1=   12    1   12    1 ; Wght=  0.3666666667  0.6333333333
 cg2d: Sum(rhs),rhsMax =   6.93889390390723E-16  1.72946977506152E+02
(PID.TID 0000.0001)      cg2d_init_res =   1.05267379315501E-01
(PID.TID 0000.0001)      cg2d_iters(min,last) =      -1      99
(PID.TID 0000.0001)      cg2d_last_res =   8.47488545615498E-10
(PID.TID 0000.0001) // =======================================================
(PID.TID 0000.0001) // Begin MONITOR dynamic field statistics
(PID.TID 0000.0001) // =======================================================
(PID.TID 0000.0001) %MON time_tsnumber                =                     3
(PID.TID 0000.0001) %MON time_secondsf                =   5.1840000000000E+05
(PID.TID 0000.0001) %MON dynstat_eta_max              =   5.1187677620756E+04
(PID.TID 0000.0001) %MON dynstat_eta_min              =  -9.1291875857918E+04
(PID.TID 0000.0001) %MON dynstat_eta_mean             =  -5.2654327155946E-12
(PID.TID 0000.0001) %MON dynstat_eta_sd               =   3.9692826373298E+04
(PID.TID 0000.0001) %MON dynstat_eta_del2             =   2.1203160557585E+03
(PID.TID 0000.0001) %MON dynstat_uvel_max             =   7.1144529076723E-02
(PID.TID 0000.0001) %MON dynstat_uvel_min             =  -5.1820173155192E-02
(PID.TID 0000.0001) %MON dynstat_uvel_mean            =  -1.1611704650605E-03
(PID.TID 0000.0001) %MON dynstat_uvel_sd              =   2.7116244779260E-03
(PID.TID 0000.0001) %MON dynstat_uvel_del2            =   3.6794897741384E-05
(PID.TID 0000.0001) %MON dynstat_vvel_max             =   5.3413500221714E-02
(PID.TID 0000.0001) %MON dynstat_vvel_min             =  -4.5579522653903E-02
(PID.TID 0000.0001) %MON dynstat_vvel_mean            =   1.5249410329352E-03
(PID.TID 0000.0001) %MON dynstat_vvel_sd              =   4.1691247429478E-03
(PID.TID 0000.0001) %MON dynstat_vvel_del2            =   4.5473267432190E-05
(PID.TID 0000.0001) %MON dynstat_wvel_max             =   8.8722865697154E-01
(PID.TID 0000.0001) %MON dynstat_wvel_min             =  -1.0866969782801E+00
(PID.TID 0000.0001) %MON dynstat_wvel_mean            =  -1.5747462137245E-03
(PID.TID 0000.0001) %MON dynstat_wvel_sd              =   1.2221699536981E-01
(PID.TID 0000.0001) %MON dynstat_wvel_del2            =   1.9760727045870E-03
(PID.TID 0000.0001) %MON dynstat_theta_max            =   2.9669020380866E+01
(PID.TID 0000.0001) %MON dynstat_theta_min            =  -2.6050326412737E+00
(PID.TID 0000.0001) %MON dynstat_theta_mean           =   3.6021527533733E+00
(PID.TID 0000.0001) %MON dynstat_theta_sd             =   4.4012409280386E+00
(PID.TID 0000.0001) %MON dynstat_theta_del2           =   5.6504512734873E-03
(PID.TID 0000.0001) %MON dynstat_salt_max             =   3.7435162224160E+01
(PID.TID 0000.0001) %MON dynstat_salt_min             =   2.9770611772779E+01
(PID.TID 0000.0001) %MON dynstat_salt_mean            =   3.4718001280403E+01
(PID.TID 0000.0001) %MON dynstat_salt_sd              =   2.9442265083821E-01
(PID.TID 0000.0001) %MON dynstat_salt_del2            =   1.0402669106450E-03
(PID.TID 0000.0001) %MON forcing_qnet_max             =   4.4049352312003E+02
(PID.TID 0000.0001) %MON forcing_qnet_min             =  -2.1762968086790E+02
(PID.TID 0000.0001) %MON forcing_qnet_mean            =  -1.5811633362602E+01
(PID.TID 0000.0001) %MON forcing_qnet_sd              =   1.1851361770403E+02
(PID.TID 0000.0001) %MON forcing_qnet_del2            =   7.0176440912652E-01
(PID.TID 0000.0001) %MON forcing_qsw_max              =   0.0000000000000E+00
(PID.TID 0000.0001) %MON forcing_qsw_min              =   0.0000000000000E+00
(PID.TID 0000.0001) %MON forcing_qsw_mean             =   0.0000000000000E+00
(PID.TID 0000.0001) %MON forcing_qsw_sd               =   0.0000000000000E+00
(PID.TID 0000.0001) %MON forcing_qsw_del2             =   0.0000000000000E+00
(PID.TID 0000.0001) %MON forcing_empmr_max            =   5.2312924520654E-05
(PID.TID 0000.0001) %MON forcing_empmr_min            =  -1.3707940920787E-04
(PID.TID 0000.0001) %MON forcing_empmr_mean           =   4.0865136276267E-22
(PID.TID 0000.0001) %MON forcing_empmr_sd             =   2.3555038620025E-05
(PID.TID 0000.0001) %MON forcing_empmr_del2           =   2.4961915835152E-07
(PID.TID 0000.0001) %MON forcing_fu_max               =   2.7145580030005E-01
(PID.TID 0000.0001) %MON forcing_fu_min               =  -1.6193295433260E-01
(PID.TID 0000.0001) %MON forcing_fu_mean              =   1.6186042186188E-02
(PID.TID 0000.0001) %MON forcing_fu_sd                =   9.0191995746640E-02
(PID.TID 0000.0001) %MON forcing_fu_del2              =   6.5054420938253E-04
(PID.TID 0000.0001) %MON forcing_fv_max               =   2.1244236100063E-01
(PID.TID 0000.0001) %MON forcing_fv_min               =  -1.8456813587032E-01
(PID.TID 0000.0001) %MON forcing_fv_mean              =  -6.0182157576956E-03
(PID.TID 0000.0001) %MON forcing_fv_sd                =   4.5652999799994E-02
(PID.TID 0000.0001) %MON forcing_fv_del2              =   4.3302155748244E-04
(PID.TID 0000.0001) %MON advcfl_uvel_max              =   4.1883423519825E-02
(PID.TID 0000.0001) %MON advcfl_vvel_max              =   2.0754772887054E-02
(PID.TID 0000.0001) %MON advcfl_wvel_max              =   6.7843618005785E-02
(PID.TID 0000.0001) %MON advcfl_W_hf_max              =   7.9993011584857E-02
(PID.TID 0000.0001) %MON pe_b_mean                    =  -8.1381270339315E-03
(PID.TID 0000.0001) %MON ke_max                       =   1.9935684299101E-03
(PID.TID 0000.0001) %MON ke_mean                      =   1.2776321940836E-05
(PID.TID 0000.0001) %MON ke_vol                       =   1.3442141716554E+22
(PID.TID 0000.0001) %MON vort_r_min                   =  -2.0891768469684E-07
(PID.TID 0000.0001) %MON vort_r_max                   =   2.3952439133736E-07
(PID.TID 0000.0001) %MON vort_a_mean                  =  -2.4598205699390E-05
(PID.TID 0000.0001) %MON vort_a_sd                    =   7.3636896466201E-05
(PID.TID 0000.0001) %MON vort_p_mean                  =  -2.9476057047927E-05
(PID.TID 0000.0001) %MON vort_p_sd                    =   1.0363472714806E-04
(PID.TID 0000.0001) %MON surfExpan_theta_mean         =   1.7734577629008E-02
(PID.TID 0000.0001) %MON surfExpan_salt_mean          =  -2.9296716499422E-04
(PID.TID 0000.0001) // =======================================================
(PID.TID 0000.0001) // End MONITOR dynamic field statistics
(PID.TID 0000.0001) // =======================================================
 EXTERNAL_FIELDS_LOAD,         3 : iP,iLd,i0,i1=   12    1   12    1 ; Wght=  0.3000000000  0.7000000000
 cg2d: Sum(rhs),rhsMax =   1.33226762955019E-15  1.72906191617140E+02
(PID.TID 0000.0001)      cg2d_init_res =   8.86779912287869E-03
(PID.TID 0000.0001)      cg2d_iters(min,last) =      -1      91
(PID.TID 0000.0001)      cg2d_last_res =   8.93572830642916E-10
(PID.TID 0000.0001) // =======================================================
(PID.TID 0000.0001) // Begin MONITOR dynamic field statistics
(PID.TID 0000.0001) // =======================================================
(PID.TID 0000.0001) %MON time_tsnumber                =                     4
(PID.TID 0000.0001) %MON time_secondsf                =   6.9120000000000E+05
(PID.TID 0000.0001) %MON dynstat_eta_max              =   5.1022227714578E+04
(PID.TID 0000.0001) %MON dynstat_eta_min              =  -9.2912038552109E+04
(PID.TID 0000.0001) %MON dynstat_eta_mean             =   3.9490745366959E-12
(PID.TID 0000.0001) %MON dynstat_eta_sd               =   4.0207370451610E+04
(PID.TID 0000.0001) %MON dynstat_eta_del2             =   2.1191692395406E+03
(PID.TID 0000.0001) %MON dynstat_uvel_max             =   6.0373208719601E-02
(PID.TID 0000.0001) %MON dynstat_uvel_min             =  -7.7398819267189E-02
(PID.TID 0000.0001) %MON dynstat_uvel_mean            =  -8.8738372248879E-04
(PID.TID 0000.0001) %MON dynstat_uvel_sd              =   3.1068555404898E-03
(PID.TID 0000.0001) %MON dynstat_uvel_del2            =   4.4802305143522E-05
(PID.TID 0000.0001) %MON dynstat_vvel_max             =   5.0445631324630E-02
(PID.TID 0000.0001) %MON dynstat_vvel_min             =  -5.9541066454142E-02
(PID.TID 0000.0001) %MON dynstat_vvel_mean            =   1.2051502618187E-03
(PID.TID 0000.0001) %MON dynstat_vvel_sd              =   5.2732323029658E-03
(PID.TID 0000.0001) %MON dynstat_vvel_del2            =   5.7680886355121E-05
(PID.TID 0000.0001) %MON dynstat_wvel_max             =   1.1517919870762E+00
(PID.TID 0000.0001) %MON dynstat_wvel_min             =  -1.3332467572795E+00
(PID.TID 0000.0001) %MON dynstat_wvel_mean            =  -9.9684102365204E-04
(PID.TID 0000.0001) %MON dynstat_wvel_sd              =   1.4928829992987E-01
(PID.TID 0000.0001) %MON dynstat_wvel_del2            =   2.3621067115745E-03
(PID.TID 0000.0001) %MON dynstat_theta_max            =   2.9656615943449E+01
(PID.TID 0000.0001) %MON dynstat_theta_min            =  -2.5972789376793E+00
(PID.TID 0000.0001) %MON dynstat_theta_mean           =   3.6023337651085E+00
(PID.TID 0000.0001) %MON dynstat_theta_sd             =   4.4012724418605E+00
(PID.TID 0000.0001) %MON dynstat_theta_del2           =   5.5541442358255E-03
(PID.TID 0000.0001) %MON dynstat_salt_max             =   3.7435139118545E+01
(PID.TID 0000.0001) %MON dynstat_salt_min             =   2.9775222929977E+01
(PID.TID 0000.0001) %MON dynstat_salt_mean            =   3.4718001794292E+01
(PID.TID 0000.0001) %MON dynstat_salt_sd              =   2.9441616128248E-01
(PID.TID 0000.0001) %MON dynstat_salt_del2            =   1.0350265482203E-03
(PID.TID 0000.0001) %MON forcing_qnet_max             =   4.4001399113216E+02
(PID.TID 0000.0001) %MON forcing_qnet_min             =  -2.1424176702723E+02
(PID.TID 0000.0001) %MON forcing_qnet_mean            =  -1.5738238113315E+01
(PID.TID 0000.0001) %MON forcing_qnet_sd              =   1.1818205583255E+02
(PID.TID 0000.0001) %MON forcing_qnet_del2            =   7.0819273676404E-01
(PID.TID 0000.0001) %MON forcing_qsw_max              =   0.0000000000000E+00
(PID.TID 0000.0001) %MON forcing_qsw_min              =   0.0000000000000E+00
(PID.TID 0000.0001) %MON forcing_qsw_mean             =   0.0000000000000E+00
(PID.TID 0000.0001) %MON forcing_qsw_sd               =   0.0000000000000E+00
(PID.TID 0000.0001) %MON forcing_qsw_del2             =   0.0000000000000E+00
(PID.TID 0000.0001) %MON forcing_empmr_max            =   5.2312924520654E-05
(PID.TID 0000.0001) %MON forcing_empmr_min            =  -1.3707940920787E-04
(PID.TID 0000.0001) %MON forcing_empmr_mean           =   8.1730272552535E-22
(PID.TID 0000.0001) %MON forcing_empmr_sd             =   2.3555038620025E-05
(PID.TID 0000.0001) %MON forcing_empmr_del2           =   2.4961915835152E-07
(PID.TID 0000.0001) %MON forcing_fu_max               =   2.6977392188535E-01
(PID.TID 0000.0001) %MON forcing_fu_min               =  -1.6355979469407E-01
(PID.TID 0000.0001) %MON forcing_fu_mean              =   1.6166332644296E-02
(PID.TID 0000.0001) %MON forcing_fu_sd                =   9.0264098738697E-02
(PID.TID 0000.0001) %MON forcing_fu_del2              =   6.5819739112670E-04
(PID.TID 0000.0001) %MON forcing_fv_max               =   2.1620217177861E-01
(PID.TID 0000.0001) %MON forcing_fv_min               =  -1.8339882068415E-01
(PID.TID 0000.0001) %MON forcing_fv_mean              =  -5.8716985899142E-03
(PID.TID 0000.0001) %MON forcing_fv_sd                =   4.5996426990309E-02
(PID.TID 0000.0001) %MON forcing_fv_del2              =   4.3761342904399E-04
(PID.TID 0000.0001) %MON advcfl_uvel_max              =   4.9570704401123E-02
(PID.TID 0000.0001) %MON advcfl_vvel_max              =   2.3135748576281E-02
(PID.TID 0000.0001) %MON advcfl_wvel_max              =   8.2672726569113E-02
(PID.TID 0000.0001) %MON advcfl_W_hf_max              =   9.7017704626937E-02
(PID.TID 0000.0001) %MON pe_b_mean                    =  -8.3953683702660E-03
(PID.TID 0000.0001) %MON ke_max                       =   2.3924831312815E-03
(PID.TID 0000.0001) %MON ke_mean                      =   1.7846456515973E-05
(PID.TID 0000.0001) %MON ke_vol                       =   1.3442141716554E+22
(PID.TID 0000.0001) %MON vort_r_min                   =  -2.2444845247119E-07
(PID.TID 0000.0001) %MON vort_r_max                   =   2.8708322160175E-07
(PID.TID 0000.0001) %MON vort_a_mean                  =  -2.4598205837550E-05
(PID.TID 0000.0001) %MON vort_a_sd                    =   7.3636956688631E-05
(PID.TID 0000.0001) %MON vort_p_mean                  =  -2.9476077388794E-05
(PID.TID 0000.0001) %MON vort_p_sd                    =   1.0363703566723E-04
(PID.TID 0000.0001) %MON surfExpan_theta_mean         =   1.0298616550779E-02
(PID.TID 0000.0001) %MON surfExpan_salt_mean          =  -2.3126432774655E-04
(PID.TID 0000.0001) // =======================================================
(PID.TID 0000.0001) // End MONITOR dynamic field statistics
(PID.TID 0000.0001) // =======================================================
 EXTERNAL_FIELDS_LOAD,         4 : iP,iLd,i0,i1=   12    1   12    1 ; Wght=  0.2333333333  0.7666666667
 cg2d: Sum(rhs),rhsMax =  -6.66133814775094E-16  1.72918819807835E+02
(PID.TID 0000.0001)      cg2d_init_res =   4.67247433768989E-03
(PID.TID 0000.0001)      cg2d_iters(min,last) =      -1      94
(PID.TID 0000.0001)      cg2d_last_res =   9.56527283810981E-10
(PID.TID 0000.0001) // =======================================================
(PID.TID 0000.0001) // Begin MONITOR dynamic field statistics
(PID.TID 0000.0001) // =======================================================
(PID.TID 0000.0001) %MON time_tsnumber                =                     5
(PID.TID 0000.0001) %MON time_secondsf                =   8.6400000000000E+05
(PID.TID 0000.0001) %MON dynstat_eta_max              =   5.8777979786915E+04
(PID.TID 0000.0001) %MON dynstat_eta_min              =  -9.4350909714576E+04
(PID.TID 0000.0001) %MON dynstat_eta_mean             =  -8.7757211926576E-13
(PID.TID 0000.0001) %MON dynstat_eta_sd               =   4.0654244455952E+04
(PID.TID 0000.0001) %MON dynstat_eta_del2             =   2.1193250706959E+03
(PID.TID 0000.0001) %MON dynstat_uvel_max             =   5.9696062380062E-02
(PID.TID 0000.0001) %MON dynstat_uvel_min             =  -9.0095784649876E-02
(PID.TID 0000.0001) %MON dynstat_uvel_mean            =  -4.7286299397394E-04
(PID.TID 0000.0001) %MON dynstat_uvel_sd              =   3.5823968634951E-03
(PID.TID 0000.0001) %MON dynstat_uvel_del2            =   5.1939925745962E-05
(PID.TID 0000.0001) %MON dynstat_vvel_max             =   6.0201963706765E-02
(PID.TID 0000.0001) %MON dynstat_vvel_min             =  -7.2311685043836E-02
(PID.TID 0000.0001) %MON dynstat_vvel_mean            =   7.4567914249122E-04
(PID.TID 0000.0001) %MON dynstat_vvel_sd              =   6.3132567338593E-03
(PID.TID 0000.0001) %MON dynstat_vvel_del2            =   6.9038292747356E-05
(PID.TID 0000.0001) %MON dynstat_wvel_max             =   1.3999318980563E+00
(PID.TID 0000.0001) %MON dynstat_wvel_min             =  -1.5271613614286E+00
(PID.TID 0000.0001) %MON dynstat_wvel_mean            =  -6.9383469272912E-04
(PID.TID 0000.0001) %MON dynstat_wvel_sd              =   1.7381971658021E-01
(PID.TID 0000.0001) %MON dynstat_wvel_del2            =   2.6969436511438E-03
(PID.TID 0000.0001) %MON dynstat_theta_max            =   2.9654525180686E+01
(PID.TID 0000.0001) %MON dynstat_theta_min            =  -2.5894330419636E+00
(PID.TID 0000.0001) %MON dynstat_theta_mean           =   3.6024837580016E+00
(PID.TID 0000.0001) %MON dynstat_theta_sd             =   4.4013185984610E+00
(PID.TID 0000.0001) %MON dynstat_theta_del2           =   5.4513904953106E-03
(PID.TID 0000.0001) %MON dynstat_salt_max             =   3.7435037702270E+01
(PID.TID 0000.0001) %MON dynstat_salt_min             =   2.9777919246682E+01
(PID.TID 0000.0001) %MON dynstat_salt_mean            =   3.4718001630339E+01
(PID.TID 0000.0001) %MON dynstat_salt_sd              =   2.9441800411702E-01
(PID.TID 0000.0001) %MON dynstat_salt_del2            =   1.0316493028777E-03
(PID.TID 0000.0001) %MON forcing_qnet_max             =   4.3953445914429E+02
(PID.TID 0000.0001) %MON forcing_qnet_min             =  -2.1304556232427E+02
(PID.TID 0000.0001) %MON forcing_qnet_mean            =  -1.5664842864029E+01
(PID.TID 0000.0001) %MON forcing_qnet_sd              =   1.1791471030201E+02
(PID.TID 0000.0001) %MON forcing_qnet_del2            =   7.1680655887993E-01
(PID.TID 0000.0001) %MON forcing_qsw_max              =   0.0000000000000E+00
(PID.TID 0000.0001) %MON forcing_qsw_min              =   0.0000000000000E+00
(PID.TID 0000.0001) %MON forcing_qsw_mean             =   0.0000000000000E+00
(PID.TID 0000.0001) %MON forcing_qsw_sd               =   0.0000000000000E+00
(PID.TID 0000.0001) %MON forcing_qsw_del2             =   0.0000000000000E+00
(PID.TID 0000.0001) %MON forcing_empmr_max            =   5.2312924520654E-05
(PID.TID 0000.0001) %MON forcing_empmr_min            =  -1.3707940920787E-04
(PID.TID 0000.0001) %MON forcing_empmr_mean           =   4.0865136276267E-22
(PID.TID 0000.0001) %MON forcing_empmr_sd             =   2.3555038620025E-05
(PID.TID 0000.0001) %MON forcing_empmr_del2           =   2.4961915835152E-07
(PID.TID 0000.0001) %MON forcing_fu_max               =   2.6993649979941E-01
(PID.TID 0000.0001) %MON forcing_fu_min               =  -1.6518663505555E-01
(PID.TID 0000.0001) %MON forcing_fu_mean              =   1.6146623102404E-02
(PID.TID 0000.0001) %MON forcing_fu_sd                =   9.0379520036752E-02
(PID.TID 0000.0001) %MON forcing_fu_del2              =   6.6788396228870E-04
(PID.TID 0000.0001) %MON forcing_fv_max               =   2.1996198255658E-01
(PID.TID 0000.0001) %MON forcing_fv_min               =  -1.8222950549797E-01
(PID.TID 0000.0001) %MON forcing_fv_mean              =  -5.7251814221328E-03
(PID.TID 0000.0001) %MON forcing_fv_sd                =   4.6398500527278E-02
(PID.TID 0000.0001) %MON forcing_fv_del2              =   4.4437371985182E-04
(PID.TID 0000.0001) %MON advcfl_uvel_max              =   5.4003897680230E-02
(PID.TID 0000.0001) %MON advcfl_vvel_max              =   2.8098001328040E-02
(PID.TID 0000.0001) %MON advcfl_wvel_max              =   9.6078919249553E-02
(PID.TID 0000.0001) %MON advcfl_W_hf_max              =   1.0886308435033E-01
(PID.TID 0000.0001) %MON pe_b_mean                    =  -8.4417916146007E-03
(PID.TID 0000.0001) %MON ke_max                       =   3.5715813776955E-03
(PID.TID 0000.0001) %MON ke_mean                      =   2.4032415618867E-05
(PID.TID 0000.0001) %MON ke_vol                       =   1.3442141716554E+22
(PID.TID 0000.0001) %MON vort_r_min                   =  -2.5909543278126E-07
(PID.TID 0000.0001) %MON vort_r_max                   =   2.9702765620752E-07
(PID.TID 0000.0001) %MON vort_a_mean                  =  -2.4598205917835E-05
(PID.TID 0000.0001) %MON vort_a_sd                    =   7.3637051733256E-05
(PID.TID 0000.0001) %MON vort_p_mean                  =  -2.9476147924753E-05
(PID.TID 0000.0001) %MON vort_p_sd                    =   1.0363835061498E-04
(PID.TID 0000.0001) %MON surfExpan_theta_mean         =   6.1420298676709E-03
(PID.TID 0000.0001) %MON surfExpan_salt_mean          =  -1.0923423140839E-04
(PID.TID 0000.0001) // =======================================================
(PID.TID 0000.0001) // End MONITOR dynamic field statistics
(PID.TID 0000.0001) // =======================================================
 EXTERNAL_FIELDS_LOAD,         5 : iP,iLd,i0,i1=   12    1   12    1 ; Wght=  0.1666666667  0.8333333333
 cg2d: Sum(rhs),rhsMax =  -2.66453525910038E-15  1.72928087588440E+02
(PID.TID 0000.0001)      cg2d_init_res =   3.44754974381562E-03
(PID.TID 0000.0001)      cg2d_iters(min,last) =      -1      91
(PID.TID 0000.0001)      cg2d_last_res =   9.88943411070627E-10
(PID.TID 0000.0001) // =======================================================
(PID.TID 0000.0001) // Begin MONITOR dynamic field statistics
(PID.TID 0000.0001) // =======================================================
(PID.TID 0000.0001) %MON time_tsnumber                =                     6
(PID.TID 0000.0001) %MON time_secondsf                =   1.0368000000000E+06
(PID.TID 0000.0001) %MON dynstat_eta_max              =   6.2199547617334E+04
(PID.TID 0000.0001) %MON dynstat_eta_min              =  -9.5076306247172E+04
(PID.TID 0000.0001) %MON dynstat_eta_mean             =   4.3878605963288E-12
(PID.TID 0000.0001) %MON dynstat_eta_sd               =   4.0801721635349E+04
(PID.TID 0000.0001) %MON dynstat_eta_del2             =   2.1193910857700E+03
(PID.TID 0000.0001) %MON dynstat_uvel_max             =   7.4171806674513E-02
(PID.TID 0000.0001) %MON dynstat_uvel_min             =  -8.7711900010456E-02
(PID.TID 0000.0001) %MON dynstat_uvel_mean            =  -3.8396252229252E-05
(PID.TID 0000.0001) %MON dynstat_uvel_sd              =   4.2190217741552E-03
(PID.TID 0000.0001) %MON dynstat_uvel_del2            =   5.8240437934088E-05
(PID.TID 0000.0001) %MON dynstat_vvel_max             =   6.8510043855788E-02
(PID.TID 0000.0001) %MON dynstat_vvel_min             =  -8.3508093943322E-02
(PID.TID 0000.0001) %MON dynstat_vvel_mean            =   2.7716955755359E-04
(PID.TID 0000.0001) %MON dynstat_vvel_sd              =   7.2904339571152E-03
(PID.TID 0000.0001) %MON dynstat_vvel_del2            =   7.9313781977657E-05
(PID.TID 0000.0001) %MON dynstat_wvel_max             =   1.6150478850407E+00
(PID.TID 0000.0001) %MON dynstat_wvel_min             =  -1.6581753480566E+00
(PID.TID 0000.0001) %MON dynstat_wvel_mean            =  -3.9057911769574E-04
(PID.TID 0000.0001) %MON dynstat_wvel_sd              =   1.9514785141182E-01
(PID.TID 0000.0001) %MON dynstat_wvel_del2            =   2.9657248872540E-03
(PID.TID 0000.0001) %MON dynstat_theta_max            =   2.9697979606402E+01
(PID.TID 0000.0001) %MON dynstat_theta_min            =  -2.5814274495172E+00
(PID.TID 0000.0001) %MON dynstat_theta_mean           =   3.6026222675399E+00
(PID.TID 0000.0001) %MON dynstat_theta_sd             =   4.4013855316884E+00
(PID.TID 0000.0001) %MON dynstat_theta_del2           =   5.3465211681699E-03
(PID.TID 0000.0001) %MON dynstat_salt_max             =   3.7434852872455E+01
(PID.TID 0000.0001) %MON dynstat_salt_min             =   2.9779032532723E+01
(PID.TID 0000.0001) %MON dynstat_salt_mean            =   3.4718001306089E+01
(PID.TID 0000.0001) %MON dynstat_salt_sd              =   2.9441925790225E-01
(PID.TID 0000.0001) %MON dynstat_salt_del2            =   1.0275609301983E-03
(PID.TID 0000.0001) %MON forcing_qnet_max             =   4.4037724209196E+02
(PID.TID 0000.0001) %MON forcing_qnet_min             =  -2.1284566492290E+02
(PID.TID 0000.0001) %MON forcing_qnet_mean            =  -1.5591447614743E+01
(PID.TID 0000.0001) %MON forcing_qnet_sd              =   1.1771201865440E+02
(PID.TID 0000.0001) %MON forcing_qnet_del2            =   7.2752825186415E-01
(PID.TID 0000.0001) %MON forcing_qsw_max              =   0.0000000000000E+00
(PID.TID 0000.0001) %MON forcing_qsw_min              =   0.0000000000000E+00
(PID.TID 0000.0001) %MON forcing_qsw_mean             =   0.0000000000000E+00
(PID.TID 0000.0001) %MON forcing_qsw_sd               =   0.0000000000000E+00
(PID.TID 0000.0001) %MON forcing_qsw_del2             =   0.0000000000000E+00
(PID.TID 0000.0001) %MON forcing_empmr_max            =   5.2312924520654E-05
(PID.TID 0000.0001) %MON forcing_empmr_min            =  -1.3707940920787E-04
(PID.TID 0000.0001) %MON forcing_empmr_mean           =   4.0865136276267E-22
(PID.TID 0000.0001) %MON forcing_empmr_sd             =   2.3555038620025E-05
(PID.TID 0000.0001) %MON forcing_empmr_del2           =   2.4961915835152E-07
(PID.TID 0000.0001) %MON forcing_fu_max               =   2.7009907771346E-01
(PID.TID 0000.0001) %MON forcing_fu_min               =  -1.6681347541702E-01
(PID.TID 0000.0001) %MON forcing_fu_mean              =   1.6126913560513E-02
(PID.TID 0000.0001) %MON forcing_fu_sd                =   9.0538093969639E-02
(PID.TID 0000.0001) %MON forcing_fu_del2              =   6.7951697002394E-04
(PID.TID 0000.0001) %MON forcing_fv_max               =   2.2372179333456E-01
(PID.TID 0000.0001) %MON forcing_fv_min               =  -1.8106019031180E-01
(PID.TID 0000.0001) %MON forcing_fv_mean              =  -5.5786642543514E-03
(PID.TID 0000.0001) %MON forcing_fv_sd                =   4.6857710749175E-02
(PID.TID 0000.0001) %MON forcing_fv_del2              =   4.5320540386280E-04
(PID.TID 0000.0001) %MON advcfl_uvel_max              =   5.3934547419618E-02
(PID.TID 0000.0001) %MON advcfl_vvel_max              =   3.2448566688760E-02
(PID.TID 0000.0001) %MON advcfl_wvel_max              =   1.0591084253808E-01
(PID.TID 0000.0001) %MON advcfl_W_hf_max              =   1.1991144929790E-01
(PID.TID 0000.0001) %MON pe_b_mean                    =  -8.5193552770895E-03
(PID.TID 0000.0001) %MON ke_max                       =   3.8520484908920E-03
(PID.TID 0000.0001) %MON ke_mean                      =   3.1926151042908E-05
(PID.TID 0000.0001) %MON ke_vol                       =   1.3442141716554E+22
(PID.TID 0000.0001) %MON vort_r_min                   =  -2.9395509341362E-07
(PID.TID 0000.0001) %MON vort_r_max                   =   2.9638567055794E-07
(PID.TID 0000.0001) %MON vort_a_mean                  =  -2.4598205902520E-05
(PID.TID 0000.0001) %MON vort_a_sd                    =   7.3637152862985E-05
(PID.TID 0000.0001) %MON vort_p_mean                  =  -2.9476194535718E-05
(PID.TID 0000.0001) %MON vort_p_sd                    =   1.0363871127515E-04
(PID.TID 0000.0001) %MON surfExpan_theta_mean         =   2.1110096014582E-03
(PID.TID 0000.0001) %MON surfExpan_salt_mean          =  -5.9423811119196E-05
(PID.TID 0000.0001) // =======================================================
(PID.TID 0000.0001) // End MONITOR dynamic field statistics
(PID.TID 0000.0001) // =======================================================
 EXTERNAL_FIELDS_LOAD,         6 : iP,iLd,i0,i1=   12    1   12    1 ; Wght=  0.1000000000  0.9000000000
 cg2d: Sum(rhs),rhsMax =   1.94289029309402E-15  1.72940074721564E+02
(PID.TID 0000.0001)      cg2d_init_res =   3.58867411982654E-03
(PID.TID 0000.0001)      cg2d_iters(min,last) =      -1      91
(PID.TID 0000.0001)      cg2d_last_res =   8.99012699995084E-10
(PID.TID 0000.0001) // =======================================================
(PID.TID 0000.0001) // Begin MONITOR dynamic field statistics
(PID.TID 0000.0001) // =======================================================
(PID.TID 0000.0001) %MON time_tsnumber                =                     7
(PID.TID 0000.0001) %MON time_secondsf                =   1.2096000000000E+06
(PID.TID 0000.0001) %MON dynstat_eta_max              =   6.1124917155260E+04
(PID.TID 0000.0001) %MON dynstat_eta_min              =  -9.5056848320199E+04
(PID.TID 0000.0001) %MON dynstat_eta_mean             =  -6.1430048348603E-12
(PID.TID 0000.0001) %MON dynstat_eta_sd               =   4.0658545025352E+04
(PID.TID 0000.0001) %MON dynstat_eta_del2             =   2.1194803026719E+03
(PID.TID 0000.0001) %MON dynstat_uvel_max             =   8.8447774547824E-02
(PID.TID 0000.0001) %MON dynstat_uvel_min             =  -7.2707812094012E-02
(PID.TID 0000.0001) %MON dynstat_uvel_mean            =   3.1960489096473E-04
(PID.TID 0000.0001) %MON dynstat_uvel_sd              =   4.9896351602514E-03
(PID.TID 0000.0001) %MON dynstat_uvel_del2            =   6.3677076983027E-05
(PID.TID 0000.0001) %MON dynstat_vvel_max             =   7.5321143399338E-02
(PID.TID 0000.0001) %MON dynstat_vvel_min             =  -9.4846652927096E-02
(PID.TID 0000.0001) %MON dynstat_vvel_mean            =  -1.0069002365901E-04
(PID.TID 0000.0001) %MON dynstat_vvel_sd              =   8.1799258792458E-03
(PID.TID 0000.0001) %MON dynstat_vvel_del2            =   8.8281364919986E-05
(PID.TID 0000.0001) %MON dynstat_wvel_max             =   1.7882606593927E+00
(PID.TID 0000.0001) %MON dynstat_wvel_min             =  -1.7284273181614E+00
(PID.TID 0000.0001) %MON dynstat_wvel_mean            =  -8.0203454398968E-05
(PID.TID 0000.0001) %MON dynstat_wvel_sd              =   2.1275379039276E-01
(PID.TID 0000.0001) %MON dynstat_wvel_del2            =   3.1649116427066E-03
(PID.TID 0000.0001) %MON dynstat_theta_max            =   2.9742919294546E+01
(PID.TID 0000.0001) %MON dynstat_theta_min            =  -2.6576220716973E+00
(PID.TID 0000.0001) %MON dynstat_theta_mean           =   3.6027578542053E+00
(PID.TID 0000.0001) %MON dynstat_theta_sd             =   4.4014791451735E+00
(PID.TID 0000.0001) %MON dynstat_theta_del2           =   5.2535078530732E-03
(PID.TID 0000.0001) %MON dynstat_salt_max             =   3.7434621474307E+01
(PID.TID 0000.0001) %MON dynstat_salt_min             =   2.9779140544309E+01
(PID.TID 0000.0001) %MON dynstat_salt_mean            =   3.4718001173736E+01
(PID.TID 0000.0001) %MON dynstat_salt_sd              =   2.9441992882365E-01
(PID.TID 0000.0001) %MON dynstat_salt_del2            =   1.0256237115736E-03
(PID.TID 0000.0001) %MON forcing_qnet_max             =   4.5578450464295E+02
(PID.TID 0000.0001) %MON forcing_qnet_min             =  -2.1264576752152E+02
(PID.TID 0000.0001) %MON forcing_qnet_mean            =  -1.5518052365456E+01
(PID.TID 0000.0001) %MON forcing_qnet_sd              =   1.1757431526940E+02
(PID.TID 0000.0001) %MON forcing_qnet_del2            =   7.4026623293719E-01
(PID.TID 0000.0001) %MON forcing_qsw_max              =   0.0000000000000E+00
(PID.TID 0000.0001) %MON forcing_qsw_min              =   0.0000000000000E+00
(PID.TID 0000.0001) %MON forcing_qsw_mean             =   0.0000000000000E+00
(PID.TID 0000.0001) %MON forcing_qsw_sd               =   0.0000000000000E+00
(PID.TID 0000.0001) %MON forcing_qsw_del2             =   0.0000000000000E+00
(PID.TID 0000.0001) %MON forcing_empmr_max            =   5.2312924520654E-05
(PID.TID 0000.0001) %MON forcing_empmr_min            =  -1.3707940920787E-04
(PID.TID 0000.0001) %MON forcing_empmr_mean           =   4.0865136276267E-22
(PID.TID 0000.0001) %MON forcing_empmr_sd             =   2.3555038620025E-05
(PID.TID 0000.0001) %MON forcing_empmr_del2           =   2.4961915835152E-07
(PID.TID 0000.0001) %MON forcing_fu_max               =   2.7026165562751E-01
(PID.TID 0000.0001) %MON forcing_fu_min               =  -1.6844031577850E-01
(PID.TID 0000.0001) %MON forcing_fu_mean              =   1.6107204018621E-02
(PID.TID 0000.0001) %MON forcing_fu_sd                =   9.0739594300691E-02
(PID.TID 0000.0001) %MON forcing_fu_del2              =   6.9299839977463E-04
(PID.TID 0000.0001) %MON forcing_fv_max               =   2.2748160411253E-01
(PID.TID 0000.0001) %MON forcing_fv_min               =  -1.7989087512562E-01
(PID.TID 0000.0001) %MON forcing_fv_mean              =  -5.4321470865700E-03
(PID.TID 0000.0001) %MON forcing_fv_sd                =   4.7372396100423E-02
(PID.TID 0000.0001) %MON forcing_fv_del2              =   4.6399021419221E-04
(PID.TID 0000.0001) %MON advcfl_uvel_max              =   5.8470279735199E-02
(PID.TID 0000.0001) %MON advcfl_vvel_max              =   3.6854367012608E-02
(PID.TID 0000.0001) %MON advcfl_wvel_max              =   1.1219610540460E-01
(PID.TID 0000.0001) %MON advcfl_W_hf_max              =   1.2702757604642E-01
(PID.TID 0000.0001) %MON pe_b_mean                    =  -8.6494824740542E-03
(PID.TID 0000.0001) %MON ke_max                       =   5.0805172995909E-03
(PID.TID 0000.0001) %MON ke_mean                      =   4.1325279793002E-05
(PID.TID 0000.0001) %MON ke_vol                       =   1.3442141716554E+22
(PID.TID 0000.0001) %MON vort_r_min                   =  -2.7762967790828E-07
(PID.TID 0000.0001) %MON vort_r_max                   =   2.6294158618298E-07
(PID.TID 0000.0001) %MON vort_a_mean                  =  -2.4598205784338E-05
(PID.TID 0000.0001) %MON vort_a_sd                    =   7.3637237018403E-05
(PID.TID 0000.0001) %MON vort_p_mean                  =  -2.9476210035818E-05
(PID.TID 0000.0001) %MON vort_p_sd                    =   1.0363846040790E-04
(PID.TID 0000.0001) %MON surfExpan_theta_mean         =  -1.7024613297706E-03
(PID.TID 0000.0001) %MON surfExpan_salt_mean          =  -5.6693028501226E-05
(PID.TID 0000.0001) // =======================================================
(PID.TID 0000.0001) // End MONITOR dynamic field statistics
(PID.TID 0000.0001) // =======================================================
 EXTERNAL_FIELDS_LOAD,         7 : iP,iLd,i0,i1=   12    1   12    1 ; Wght=  0.0333333333  0.9666666667
 cg2d: Sum(rhs),rhsMax =  -2.38697950294409E-15  1.72953747327931E+02
(PID.TID 0000.0001)      cg2d_init_res =   3.93752845674375E-03
(PID.TID 0000.0001)      cg2d_iters(min,last) =      -1      90
(PID.TID 0000.0001)      cg2d_last_res =   8.40847636378134E-10
(PID.TID 0000.0001) // =======================================================
(PID.TID 0000.0001) // Begin MONITOR dynamic field statistics
(PID.TID 0000.0001) // =======================================================
(PID.TID 0000.0001) %MON time_tsnumber                =                     8
(PID.TID 0000.0001) %MON time_secondsf                =   1.3824000000000E+06
(PID.TID 0000.0001) %MON dynstat_eta_max              =   5.6572015706802E+04
(PID.TID 0000.0001) %MON dynstat_eta_min              =  -9.4423755137393E+04
(PID.TID 0000.0001) %MON dynstat_eta_mean             =   6.5817908944932E-12
(PID.TID 0000.0001) %MON dynstat_eta_sd               =   4.0354858971083E+04
(PID.TID 0000.0001) %MON dynstat_eta_del2             =   2.1195691942339E+03
(PID.TID 0000.0001) %MON dynstat_uvel_max             =   1.0204013097555E-01
(PID.TID 0000.0001) %MON dynstat_uvel_min             =  -6.5317091648407E-02
(PID.TID 0000.0001) %MON dynstat_uvel_mean            =   5.4611044180156E-04
(PID.TID 0000.0001) %MON dynstat_uvel_sd              =   5.8327958305630E-03
(PID.TID 0000.0001) %MON dynstat_uvel_del2            =   6.8270351335054E-05
(PID.TID 0000.0001) %MON dynstat_vvel_max             =   8.0634683496042E-02
(PID.TID 0000.0001) %MON dynstat_vvel_min             =  -1.0472135312197E-01
(PID.TID 0000.0001) %MON dynstat_vvel_mean            =  -3.3433917293561E-04
(PID.TID 0000.0001) %MON dynstat_vvel_sd              =   8.9560640540292E-03
(PID.TID 0000.0001) %MON dynstat_vvel_del2            =   9.5788166434233E-05
(PID.TID 0000.0001) %MON dynstat_wvel_max             =   1.9132256313093E+00
(PID.TID 0000.0001) %MON dynstat_wvel_min             =  -1.7438604393920E+00
(PID.TID 0000.0001) %MON dynstat_wvel_mean            =   1.8250026771628E-04
(PID.TID 0000.0001) %MON dynstat_wvel_sd              =   2.2626337604052E-01
(PID.TID 0000.0001) %MON dynstat_wvel_del2            =   3.2963822280900E-03
(PID.TID 0000.0001) %MON dynstat_theta_max            =   2.9791415859483E+01
(PID.TID 0000.0001) %MON dynstat_theta_min            =  -2.7389994731468E+00
(PID.TID 0000.0001) %MON dynstat_theta_mean           =   3.6028883723325E+00
(PID.TID 0000.0001) %MON dynstat_theta_sd             =   4.4015950484596E+00
(PID.TID 0000.0001) %MON dynstat_theta_del2           =   5.1722539784808E-03
(PID.TID 0000.0001) %MON dynstat_salt_max             =   3.7434358091031E+01
(PID.TID 0000.0001) %MON dynstat_salt_min             =   2.9778554212043E+01
(PID.TID 0000.0001) %MON dynstat_salt_mean            =   3.4718001166480E+01
(PID.TID 0000.0001) %MON dynstat_salt_sd              =   2.9442245724156E-01
(PID.TID 0000.0001) %MON dynstat_salt_del2            =   1.0241880154424E-03
(PID.TID 0000.0001) %MON forcing_qnet_max             =   4.7119176719395E+02
(PID.TID 0000.0001) %MON forcing_qnet_min             =  -2.1244587012014E+02
(PID.TID 0000.0001) %MON forcing_qnet_mean            =  -1.5444657116170E+01
(PID.TID 0000.0001) %MON forcing_qnet_sd              =   1.1750182863142E+02
(PID.TID 0000.0001) %MON forcing_qnet_del2            =   7.5491844457055E-01
(PID.TID 0000.0001) %MON forcing_qsw_max              =   0.0000000000000E+00
(PID.TID 0000.0001) %MON forcing_qsw_min              =   0.0000000000000E+00
(PID.TID 0000.0001) %MON forcing_qsw_mean             =   0.0000000000000E+00
(PID.TID 0000.0001) %MON forcing_qsw_sd               =   0.0000000000000E+00
(PID.TID 0000.0001) %MON forcing_qsw_del2             =   0.0000000000000E+00
(PID.TID 0000.0001) %MON forcing_empmr_max            =   5.2312924520654E-05
(PID.TID 0000.0001) %MON forcing_empmr_min            =  -1.3707940920787E-04
(PID.TID 0000.0001) %MON forcing_empmr_mean           =   4.0865136276267E-22
(PID.TID 0000.0001) %MON forcing_empmr_sd             =   2.3555038620025E-05
(PID.TID 0000.0001) %MON forcing_empmr_del2           =   2.4961915835152E-07
(PID.TID 0000.0001) %MON forcing_fu_max               =   2.7545738964627E-01
(PID.TID 0000.0001) %MON forcing_fu_min               =  -1.7006715613998E-01
(PID.TID 0000.0001) %MON forcing_fu_mean              =   1.6087494476729E-02
(PID.TID 0000.0001) %MON forcing_fu_sd                =   9.0983735824982E-02
(PID.TID 0000.0001) %MON forcing_fu_del2              =   7.0822270205174E-04
(PID.TID 0000.0001) %MON forcing_fv_max               =   2.3124141489051E-01
(PID.TID 0000.0001) %MON forcing_fv_min               =  -1.7872155993945E-01
(PID.TID 0000.0001) %MON forcing_fv_mean              =  -5.2856299187887E-03
(PID.TID 0000.0001) %MON forcing_fv_sd                =   4.7940769894797E-02
(PID.TID 0000.0001) %MON forcing_fv_del2              =   4.7659557826527E-04
(PID.TID 0000.0001) %MON advcfl_uvel_max              =   6.7455795613384E-02
(PID.TID 0000.0001) %MON advcfl_vvel_max              =   4.0691358766034E-02
(PID.TID 0000.0001) %MON advcfl_wvel_max              =   1.1924828864100E-01
(PID.TID 0000.0001) %MON advcfl_W_hf_max              =   1.3501893270433E-01
(PID.TID 0000.0001) %MON pe_b_mean                    =  -8.7563372378034E-03
(PID.TID 0000.0001) %MON ke_max                       =   6.3881970878789E-03
(PID.TID 0000.0001) %MON ke_mean                      =   5.1555367045931E-05
(PID.TID 0000.0001) %MON ke_vol                       =   1.3442141716554E+22
(PID.TID 0000.0001) %MON vort_r_min                   =  -2.3591390931980E-07
(PID.TID 0000.0001) %MON vort_r_max                   =   2.1426294444607E-07
(PID.TID 0000.0001) %MON vort_a_mean                  =  -2.4598205582575E-05
(PID.TID 0000.0001) %MON vort_a_sd                    =   7.3637290831340E-05
(PID.TID 0000.0001) %MON vort_p_mean                  =  -2.9476203179457E-05
(PID.TID 0000.0001) %MON vort_p_sd                    =   1.0363788552158E-04
(PID.TID 0000.0001) %MON surfExpan_theta_mean         =  -4.3848041525576E-03
(PID.TID 0000.0001) %MON surfExpan_salt_mean          =  -5.8708790832817E-05
(PID.TID 0000.0001) // =======================================================
(PID.TID 0000.0001) // End MONITOR dynamic field statistics
(PID.TID 0000.0001) // =======================================================
 EXTERNAL_FIELDS_LOAD,         8 : iP,iLd,i0,i1=   12    1    1    2 ; Wght=  0.9666666667  0.0333333333
 EXTERNAL_FIELDS_LOAD, it=         8 : Reading new data, i0,i1=    1    2 (prev=   12    1 )
(PID.TID 0000.0001)  MDS_READ_FIELD: opening global file: trenberth_taux.bin
(PID.TID 0000.0001)  MDS_READ_FIELD: opening global file: trenberth_taux.bin
(PID.TID 0000.0001)  MDS_READ_FIELD: opening global file: trenberth_tauy.bin
(PID.TID 0000.0001)  MDS_READ_FIELD: opening global file: trenberth_tauy.bin
(PID.TID 0000.0001)  MDS_READ_FIELD: opening global file: shi_qnet.bin
(PID.TID 0000.0001)  MDS_READ_FIELD: opening global file: shi_qnet.bin
(PID.TID 0000.0001)  MDS_READ_FIELD: opening global file: shi_empmr.bin
(PID.TID 0000.0001)  MDS_READ_FIELD: opening global file: shi_empmr.bin
(PID.TID 0000.0001)  MDS_READ_FIELD: opening global file: lev_sst.bin
(PID.TID 0000.0001)  MDS_READ_FIELD: opening global file: lev_sst.bin
(PID.TID 0000.0001)  MDS_READ_FIELD: opening global file: deltageopotjmd95.bin
(PID.TID 0000.0001)  MDS_READ_FIELD: opening global file: deltageopotjmd95.bin
 cg2d: Sum(rhs),rhsMax =  -4.16333634234434E-16  1.72967879307902E+02
(PID.TID 0000.0001)      cg2d_init_res =   3.96287895466673E-03
(PID.TID 0000.0001)      cg2d_iters(min,last) =      -1      92
(PID.TID 0000.0001)      cg2d_last_res =   9.18926203103208E-10
(PID.TID 0000.0001) // =======================================================
(PID.TID 0000.0001) // Begin MONITOR dynamic field statistics
(PID.TID 0000.0001) // =======================================================
(PID.TID 0000.0001) %MON time_tsnumber                =                     9
(PID.TID 0000.0001) %MON time_secondsf                =   1.5552000000000E+06
(PID.TID 0000.0001) %MON dynstat_eta_max              =   5.2422548254886E+04
(PID.TID 0000.0001) %MON dynstat_eta_min              =  -9.3562578877671E+04
(PID.TID 0000.0001) %MON dynstat_eta_mean             =  -2.1939302981644E-12
(PID.TID 0000.0001) %MON dynstat_eta_sd               =   4.0030059085130E+04
(PID.TID 0000.0001) %MON dynstat_eta_del2             =   2.1196459520078E+03
(PID.TID 0000.0001) %MON dynstat_uvel_max             =   1.1474730428550E-01
(PID.TID 0000.0001) %MON dynstat_uvel_min             =  -6.6866677120290E-02
(PID.TID 0000.0001) %MON dynstat_uvel_mean            =   6.2902956215512E-04
(PID.TID 0000.0001) %MON dynstat_uvel_sd              =   6.7148242504481E-03
(PID.TID 0000.0001) %MON dynstat_uvel_del2            =   7.2153697144544E-05
(PID.TID 0000.0001) %MON dynstat_vvel_max             =   8.4192217379762E-02
(PID.TID 0000.0001) %MON dynstat_vvel_min             =  -1.1289145392583E-01
(PID.TID 0000.0001) %MON dynstat_vvel_mean            =  -4.1845636230920E-04
(PID.TID 0000.0001) %MON dynstat_vvel_sd              =   9.6040799341172E-03
(PID.TID 0000.0001) %MON dynstat_vvel_del2            =   1.0178105233221E-04
(PID.TID 0000.0001) %MON dynstat_wvel_max             =   1.9865805834854E+00
(PID.TID 0000.0001) %MON dynstat_wvel_min             =  -1.7098208115679E+00
(PID.TID 0000.0001) %MON dynstat_wvel_mean            =   3.6140135194756E-04
(PID.TID 0000.0001) %MON dynstat_wvel_sd              =   2.3562351630941E-01
(PID.TID 0000.0001) %MON dynstat_wvel_del2            =   3.3668032293765E-03
(PID.TID 0000.0001) %MON dynstat_theta_max            =   2.9837633201043E+01
(PID.TID 0000.0001) %MON dynstat_theta_min            =  -2.8166604457049E+00
(PID.TID 0000.0001) %MON dynstat_theta_mean           =   3.6030116241492E+00
(PID.TID 0000.0001) %MON dynstat_theta_sd             =   4.4017283896326E+00
(PID.TID 0000.0001) %MON dynstat_theta_del2           =   5.1071799560470E-03
(PID.TID 0000.0001) %MON dynstat_salt_max             =   3.7434075582392E+01
(PID.TID 0000.0001) %MON dynstat_salt_min             =   2.9777459304789E+01
(PID.TID 0000.0001) %MON dynstat_salt_mean            =   3.4718001171836E+01
(PID.TID 0000.0001) %MON dynstat_salt_sd              =   2.9442392994183E-01
(PID.TID 0000.0001) %MON dynstat_salt_del2            =   1.0234743261562E-03
(PID.TID 0000.0001) %MON forcing_qnet_max             =   4.7142477748630E+02
(PID.TID 0000.0001) %MON forcing_qnet_min             =  -2.0867118774499E+02
(PID.TID 0000.0001) %MON forcing_qnet_mean            =  -1.5466374378120E+01
(PID.TID 0000.0001) %MON forcing_qnet_sd              =   1.1627486818170E+02
(PID.TID 0000.0001) %MON forcing_qnet_del2            =   7.5505908519335E-01
(PID.TID 0000.0001) %MON forcing_qsw_max              =   0.0000000000000E+00
(PID.TID 0000.0001) %MON forcing_qsw_min              =   0.0000000000000E+00
(PID.TID 0000.0001) %MON forcing_qsw_mean             =   0.0000000000000E+00
(PID.TID 0000.0001) %MON forcing_qsw_sd               =   0.0000000000000E+00
(PID.TID 0000.0001) %MON forcing_qsw_del2             =   0.0000000000000E+00
(PID.TID 0000.0001) %MON forcing_empmr_max            =   5.2312924520654E-05
(PID.TID 0000.0001) %MON forcing_empmr_min            =  -1.3707940920787E-04
(PID.TID 0000.0001) %MON forcing_empmr_mean           =   8.1730272552535E-22
(PID.TID 0000.0001) %MON forcing_empmr_sd             =   2.3555038620025E-05
(PID.TID 0000.0001) %MON forcing_empmr_del2           =   2.4961915835152E-07
(PID.TID 0000.0001) %MON forcing_fu_max               =   2.7858281009884E-01
(PID.TID 0000.0001) %MON forcing_fu_min               =  -1.6918717679013E-01
(PID.TID 0000.0001) %MON forcing_fu_mean              =   1.6132577065933E-02
(PID.TID 0000.0001) %MON forcing_fu_sd                =   9.0934151581891E-02
(PID.TID 0000.0001) %MON forcing_fu_del2              =   7.0876784663481E-04
(PID.TID 0000.0001) %MON forcing_fv_max               =   2.2991287307515E-01
(PID.TID 0000.0001) %MON forcing_fv_min               =  -1.7714560259865E-01
(PID.TID 0000.0001) %MON forcing_fv_mean              =  -5.2783813973473E-03
(PID.TID 0000.0001) %MON forcing_fv_sd                =   4.7923548875222E-02
(PID.TID 0000.0001) %MON forcing_fv_del2              =   4.7743132754674E-04
(PID.TID 0000.0001) %MON advcfl_uvel_max              =   7.5856142392881E-02
(PID.TID 0000.0001) %MON advcfl_vvel_max              =   4.3865997873088E-02
(PID.TID 0000.0001) %MON advcfl_wvel_max              =   1.2728529594917E-01
(PID.TID 0000.0001) %MON advcfl_W_hf_max              =   1.4411144266075E-01
(PID.TID 0000.0001) %MON pe_b_mean                    =  -8.7682090176826E-03
(PID.TID 0000.0001) %MON ke_max                       =   7.7543470778745E-03
(PID.TID 0000.0001) %MON ke_mean                      =   6.2032794596577E-05
(PID.TID 0000.0001) %MON ke_vol                       =   1.3442141716554E+22
(PID.TID 0000.0001) %MON vort_r_min                   =  -3.2648062639347E-07
(PID.TID 0000.0001) %MON vort_r_max                   =   2.8477237801828E-07
(PID.TID 0000.0001) %MON vort_a_mean                  =  -2.4598205333091E-05
(PID.TID 0000.0001) %MON vort_a_sd                    =   7.3637311013749E-05
(PID.TID 0000.0001) %MON vort_p_mean                  =  -2.9476182119598E-05
(PID.TID 0000.0001) %MON vort_p_sd                    =   1.0363716883081E-04
(PID.TID 0000.0001) %MON surfExpan_theta_mean         =  -5.4697761945041E-03
(PID.TID 0000.0001) %MON surfExpan_salt_mean          =  -5.5544061246410E-05
(PID.TID 0000.0001) // =======================================================
(PID.TID 0000.0001) // End MONITOR dynamic field statistics
(PID.TID 0000.0001) // =======================================================
 EXTERNAL_FIELDS_LOAD,         9 : iP,iLd,i0,i1=    1    2    1    2 ; Wght=  0.9000000000  0.1000000000
 cg2d: Sum(rhs),rhsMax =   5.82867087928207E-16  1.72980712708876E+02
(PID.TID 0000.0001)      cg2d_init_res =   3.62545008157745E-03
(PID.TID 0000.0001)      cg2d_iters(min,last) =      -1      93
(PID.TID 0000.0001)      cg2d_last_res =   9.17194508032669E-10
(PID.TID 0000.0001) // =======================================================
(PID.TID 0000.0001) // Begin MONITOR dynamic field statistics
(PID.TID 0000.0001) // =======================================================
(PID.TID 0000.0001) %MON time_tsnumber                =                    10
(PID.TID 0000.0001) %MON time_secondsf                =   1.7280000000000E+06
(PID.TID 0000.0001) %MON dynstat_eta_max              =   5.1401581652586E+04
(PID.TID 0000.0001) %MON dynstat_eta_min              =  -9.2838107992076E+04
(PID.TID 0000.0001) %MON dynstat_eta_mean             =  -2.1939302981644E-12
(PID.TID 0000.0001) %MON dynstat_eta_sd               =   3.9767836380303E+04
(PID.TID 0000.0001) %MON dynstat_eta_del2             =   2.1197046177986E+03
(PID.TID 0000.0001) %MON dynstat_uvel_max             =   1.2651296942454E-01
(PID.TID 0000.0001) %MON dynstat_uvel_min             =  -6.6611137870549E-02
(PID.TID 0000.0001) %MON dynstat_uvel_mean            =   5.9144391337297E-04
(PID.TID 0000.0001) %MON dynstat_uvel_sd              =   7.6319633784508E-03
(PID.TID 0000.0001) %MON dynstat_uvel_del2            =   7.5545701050834E-05
(PID.TID 0000.0001) %MON dynstat_vvel_max             =   8.6814937520031E-02
(PID.TID 0000.0001) %MON dynstat_vvel_min             =  -1.1925293697240E-01
(PID.TID 0000.0001) %MON dynstat_vvel_mean            =  -3.8390097644181E-04
(PID.TID 0000.0001) %MON dynstat_vvel_sd              =   1.0119982579443E-02
(PID.TID 0000.0001) %MON dynstat_vvel_del2            =   1.0629645063977E-04
(PID.TID 0000.0001) %MON dynstat_wvel_max             =   2.0202652296923E+00
(PID.TID 0000.0001) %MON dynstat_wvel_min             =  -1.6386781750996E+00
(PID.TID 0000.0001) %MON dynstat_wvel_mean            =   4.4782273380465E-04
(PID.TID 0000.0001) %MON dynstat_wvel_sd              =   2.4112793549582E-01
(PID.TID 0000.0001) %MON dynstat_wvel_del2            =   3.3866290709170E-03
(PID.TID 0000.0001) %MON dynstat_theta_max            =   2.9875480818511E+01
(PID.TID 0000.0001) %MON dynstat_theta_min            =  -2.8864415653929E+00
(PID.TID 0000.0001) %MON dynstat_theta_mean           =   3.6031262364280E+00
(PID.TID 0000.0001) %MON dynstat_theta_sd             =   4.4018776861841E+00
(PID.TID 0000.0001) %MON dynstat_theta_del2           =   5.0582518021455E-03
(PID.TID 0000.0001) %MON dynstat_salt_max             =   3.7433786550563E+01
(PID.TID 0000.0001) %MON dynstat_salt_min             =   2.9776093726405E+01
(PID.TID 0000.0001) %MON dynstat_salt_mean            =   3.4718001163427E+01
(PID.TID 0000.0001) %MON dynstat_salt_sd              =   2.9442374590238E-01
(PID.TID 0000.0001) %MON dynstat_salt_del2            =   1.0248792680549E-03
(PID.TID 0000.0001) %MON forcing_qnet_max             =   4.5648353552001E+02
(PID.TID 0000.0001) %MON forcing_qnet_min             =  -2.0132172039607E+02
(PID.TID 0000.0001) %MON forcing_qnet_mean            =  -1.5583204151305E+01
(PID.TID 0000.0001) %MON forcing_qnet_sd              =   1.1389045946676E+02
(PID.TID 0000.0001) %MON forcing_qnet_del2            =   7.4041337483018E-01
(PID.TID 0000.0001) %MON forcing_qsw_max              =   0.0000000000000E+00
(PID.TID 0000.0001) %MON forcing_qsw_min              =   0.0000000000000E+00
(PID.TID 0000.0001) %MON forcing_qsw_mean             =   0.0000000000000E+00
(PID.TID 0000.0001) %MON forcing_qsw_sd               =   0.0000000000000E+00
(PID.TID 0000.0001) %MON forcing_qsw_del2             =   0.0000000000000E+00
(PID.TID 0000.0001) %MON forcing_empmr_max            =   5.2312924520654E-05
(PID.TID 0000.0001) %MON forcing_empmr_min            =  -1.3707940920787E-04
(PID.TID 0000.0001) %MON forcing_empmr_mean           =   1.0216284069067E-21
(PID.TID 0000.0001) %MON forcing_empmr_sd             =   2.3555038620025E-05
(PID.TID 0000.0001) %MON forcing_empmr_del2           =   2.4961915835152E-07
(PID.TID 0000.0001) %MON forcing_fu_max               =   2.7819065969079E-01
(PID.TID 0000.0001) %MON forcing_fu_min               =  -1.7091440376031E-01
(PID.TID 0000.0001) %MON forcing_fu_mean              =   1.6242451786234E-02
(PID.TID 0000.0001) %MON forcing_fu_sd                =   9.0610414042248E-02
(PID.TID 0000.0001) %MON forcing_fu_del2              =   6.9495462547040E-04
(PID.TID 0000.0001) %MON forcing_fv_max               =   2.2349597866647E-01
(PID.TID 0000.0001) %MON forcing_fv_min               =  -1.7516300310322E-01
(PID.TID 0000.0001) %MON forcing_fv_mean              =  -5.4104015222459E-03
(PID.TID 0000.0001) %MON forcing_fv_sd                =   4.7320622627559E-02
(PID.TID 0000.0001) %MON forcing_fv_del2              =   4.6652458216358E-04
(PID.TID 0000.0001) %MON advcfl_uvel_max              =   8.3634085201138E-02
(PID.TID 0000.0001) %MON advcfl_vvel_max              =   4.6337866133140E-02
(PID.TID 0000.0001) %MON advcfl_wvel_max              =   1.3304054922047E-01
(PID.TID 0000.0001) %MON advcfl_W_hf_max              =   1.5062749658214E-01
(PID.TID 0000.0001) %MON pe_b_mean                    =  -8.6699910941726E-03
(PID.TID 0000.0001) %MON ke_max                       =   9.1650100173130E-03
(PID.TID 0000.0001) %MON ke_mean                      =   7.2521316185439E-05
(PID.TID 0000.0001) %MON ke_vol                       =   1.3442141716554E+22
(PID.TID 0000.0001) %MON vort_r_min                   =  -4.0774793729982E-07
(PID.TID 0000.0001) %MON vort_r_max                   =   3.6503374818555E-07
(PID.TID 0000.0001) %MON vort_a_mean                  =  -2.4598205078225E-05
(PID.TID 0000.0001) %MON vort_a_sd                    =   7.3637302572942E-05
(PID.TID 0000.0001) %MON vort_p_mean                  =  -2.9476155190300E-05
(PID.TID 0000.0001) %MON vort_p_sd                    =   1.0363649444364E-04
(PID.TID 0000.0001) %MON surfExpan_theta_mean         =  -5.1003353069887E-03
(PID.TID 0000.0001) %MON surfExpan_salt_mean          =  -5.4069098686055E-05
(PID.TID 0000.0001) // =======================================================
(PID.TID 0000.0001) // End MONITOR dynamic field statistics
(PID.TID 0000.0001) // =======================================================
 EXTERNAL_FIELDS_LOAD,        10 : iP,iLd,i0,i1=    1    2    1    2 ; Wght=  0.8333333333  0.1666666667
 cg2d: Sum(rhs),rhsMax =  -1.97064586870965E-15  1.72990654203525E+02
(PID.TID 0000.0001)      cg2d_init_res =   3.12560704183905E-03
(PID.TID 0000.0001)      cg2d_iters(min,last) =      -1      91
(PID.TID 0000.0001)      cg2d_last_res =   9.05004500687857E-10
(PID.TID 0000.0001) // =======================================================
(PID.TID 0000.0001) // Begin MONITOR dynamic field statistics
(PID.TID 0000.0001) // =======================================================
(PID.TID 0000.0001) %MON time_tsnumber                =                    11
(PID.TID 0000.0001) %MON time_secondsf                =   1.9008000000000E+06
(PID.TID 0000.0001) %MON dynstat_eta_max              =   4.7401980681757E+04
(PID.TID 0000.0001) %MON dynstat_eta_min              =  -9.2588174906983E+04
(PID.TID 0000.0001) %MON dynstat_eta_mean             =  -8.7757211926576E-13
(PID.TID 0000.0001) %MON dynstat_eta_sd               =   3.9593361844361E+04
(PID.TID 0000.0001) %MON dynstat_eta_del2             =   2.1197423799139E+03
(PID.TID 0000.0001) %MON dynstat_uvel_max             =   1.3726284255737E-01
(PID.TID 0000.0001) %MON dynstat_uvel_min             =  -6.5547900234769E-02
(PID.TID 0000.0001) %MON dynstat_uvel_mean            =   4.7870299012362E-04
(PID.TID 0000.0001) %MON dynstat_uvel_sd              =   8.5864540354105E-03
(PID.TID 0000.0001) %MON dynstat_uvel_del2            =   7.8683411550383E-05
(PID.TID 0000.0001) %MON dynstat_vvel_max             =   8.9396234002849E-02
(PID.TID 0000.0001) %MON dynstat_vvel_min             =  -1.2376026919780E-01
(PID.TID 0000.0001) %MON dynstat_vvel_mean            =  -2.7967469609594E-04
(PID.TID 0000.0001) %MON dynstat_vvel_sd              =   1.0506154015772E-02
(PID.TID 0000.0001) %MON dynstat_vvel_del2            =   1.0942856874744E-04
(PID.TID 0000.0001) %MON dynstat_wvel_max             =   2.1381496394330E+00
(PID.TID 0000.0001) %MON dynstat_wvel_min             =  -1.5528629272681E+00
(PID.TID 0000.0001) %MON dynstat_wvel_mean            =   4.5200034073657E-04
(PID.TID 0000.0001) %MON dynstat_wvel_sd              =   2.4328301802077E-01
(PID.TID 0000.0001) %MON dynstat_wvel_del2            =   3.3676904289572E-03
(PID.TID 0000.0001) %MON dynstat_theta_max            =   2.9908059934121E+01
(PID.TID 0000.0001) %MON dynstat_theta_min            =  -2.9512828414725E+00
(PID.TID 0000.0001) %MON dynstat_theta_mean           =   3.6032329639437E+00
(PID.TID 0000.0001) %MON dynstat_theta_sd             =   4.4020385909257E+00
(PID.TID 0000.0001) %MON dynstat_theta_del2           =   5.0252619554107E-03
(PID.TID 0000.0001) %MON dynstat_salt_max             =   3.7433507868294E+01
(PID.TID 0000.0001) %MON dynstat_salt_min             =   2.9774664841385E+01
(PID.TID 0000.0001) %MON dynstat_salt_mean            =   3.4718001159508E+01
(PID.TID 0000.0001) %MON dynstat_salt_sd              =   2.9442048875489E-01
(PID.TID 0000.0001) %MON dynstat_salt_del2            =   1.0257839657913E-03
(PID.TID 0000.0001) %MON forcing_qnet_max             =   4.4154229355371E+02
(PID.TID 0000.0001) %MON forcing_qnet_min             =  -1.9579136980453E+02
(PID.TID 0000.0001) %MON forcing_qnet_mean            =  -1.5700033924490E+01
(PID.TID 0000.0001) %MON forcing_qnet_sd              =   1.1157068146507E+02
(PID.TID 0000.0001) %MON forcing_qnet_del2            =   7.2729757987647E-01
(PID.TID 0000.0001) %MON forcing_qsw_max              =   0.0000000000000E+00
(PID.TID 0000.0001) %MON forcing_qsw_min              =   0.0000000000000E+00
(PID.TID 0000.0001) %MON forcing_qsw_mean             =   0.0000000000000E+00
(PID.TID 0000.0001) %MON forcing_qsw_sd               =   0.0000000000000E+00
(PID.TID 0000.0001) %MON forcing_qsw_del2             =   0.0000000000000E+00
(PID.TID 0000.0001) %MON forcing_empmr_max            =   5.2312924520654E-05
(PID.TID 0000.0001) %MON forcing_empmr_min            =  -1.3707940920787E-04
(PID.TID 0000.0001) %MON forcing_empmr_mean           =   1.2259540882880E-21
(PID.TID 0000.0001) %MON forcing_empmr_sd             =   2.3555038620025E-05
(PID.TID 0000.0001) %MON forcing_empmr_del2           =   2.4961915835152E-07
(PID.TID 0000.0001) %MON forcing_fu_max               =   2.7779850928273E-01
(PID.TID 0000.0001) %MON forcing_fu_min               =  -1.7423425173542E-01
(PID.TID 0000.0001) %MON forcing_fu_mean              =   1.6352326506535E-02
(PID.TID 0000.0001) %MON forcing_fu_sd                =   9.0355731935459E-02
(PID.TID 0000.0001) %MON forcing_fu_del2              =   6.8332385210054E-04
(PID.TID 0000.0001) %MON forcing_fv_max               =   2.1707908425778E-01
(PID.TID 0000.0001) %MON forcing_fv_min               =  -1.7318040360779E-01
(PID.TID 0000.0001) %MON forcing_fv_mean              =  -5.5424216471445E-03
(PID.TID 0000.0001) %MON forcing_fv_sd                =   4.6771332121489E-02
(PID.TID 0000.0001) %MON forcing_fv_del2              =   4.5745971542986E-04
(PID.TID 0000.0001) %MON advcfl_uvel_max              =   9.0740517131252E-02
(PID.TID 0000.0001) %MON advcfl_vvel_max              =   4.8089270858095E-02
(PID.TID 0000.0001) %MON advcfl_wvel_max              =   1.3633212997118E-01
(PID.TID 0000.0001) %MON advcfl_W_hf_max              =   1.5435419923921E-01
(PID.TID 0000.0001) %MON pe_b_mean                    =  -8.4961789384177E-03
(PID.TID 0000.0001) %MON ke_max                       =   1.0602782599019E-02
(PID.TID 0000.0001) %MON ke_mean                      =   8.3018234236339E-05
(PID.TID 0000.0001) %MON ke_vol                       =   1.3442141716554E+22
(PID.TID 0000.0001) %MON vort_r_min                   =  -4.6973818364276E-07
(PID.TID 0000.0001) %MON vort_r_max                   =   4.2554176636893E-07
(PID.TID 0000.0001) %MON vort_a_mean                  =  -2.4598204857369E-05
(PID.TID 0000.0001) %MON vort_a_sd                    =   7.3637275811523E-05
(PID.TID 0000.0001) %MON vort_p_mean                  =  -2.9476129511634E-05
(PID.TID 0000.0001) %MON vort_p_sd                    =   1.0363602225482E-04
(PID.TID 0000.0001) %MON surfExpan_theta_mean         =  -3.7768712919615E-03
(PID.TID 0000.0001) %MON surfExpan_salt_mean          =  -5.8044130789182E-05
(PID.TID 0000.0001) // =======================================================
(PID.TID 0000.0001) // End MONITOR dynamic field statistics
(PID.TID 0000.0001) // =======================================================
 EXTERNAL_FIELDS_LOAD,        11 : iP,iLd,i0,i1=    1    2    1    2 ; Wght=  0.7666666667  0.2333333333
 cg2d: Sum(rhs),rhsMax =  -1.24900090270330E-15  1.72996922905208E+02
(PID.TID 0000.0001)      cg2d_init_res =   2.73141548952959E-03
(PID.TID 0000.0001)      cg2d_iters(min,last) =      -1      83
(PID.TID 0000.0001)      cg2d_last_res =   9.97155274535219E-10
(PID.TID 0000.0001) // =======================================================
(PID.TID 0000.0001) // Begin MONITOR dynamic field statistics
(PID.TID 0000.0001) // =======================================================
(PID.TID 0000.0001) %MON time_tsnumber                =                    12
(PID.TID 0000.0001) %MON time_secondsf                =   2.0736000000000E+06
(PID.TID 0000.0001) %MON dynstat_eta_max              =   4.2927817204220E+04
(PID.TID 0000.0001) %MON dynstat_eta_min              =  -9.2542272915464E+04
(PID.TID 0000.0001) %MON dynstat_eta_mean             =   3.9490745366959E-12
(PID.TID 0000.0001) %MON dynstat_eta_sd               =   3.9501902032606E+04
(PID.TID 0000.0001) %MON dynstat_eta_del2             =   2.1197580667942E+03
(PID.TID 0000.0001) %MON dynstat_uvel_max             =   1.4889615154330E-01
(PID.TID 0000.0001) %MON dynstat_uvel_min             =  -7.0063916810629E-02
(PID.TID 0000.0001) %MON dynstat_uvel_mean            =   3.4358704857421E-04
(PID.TID 0000.0001) %MON dynstat_uvel_sd              =   9.5688544053818E-03
(PID.TID 0000.0001) %MON dynstat_uvel_del2            =   8.1758096737918E-05
(PID.TID 0000.0001) %MON dynstat_vvel_max             =   9.0696920742832E-02
(PID.TID 0000.0001) %MON dynstat_vvel_min             =  -1.2706231064517E-01
(PID.TID 0000.0001) %MON dynstat_vvel_mean            =  -1.5586196769482E-04
(PID.TID 0000.0001) %MON dynstat_vvel_sd              =   1.0767404922182E-02
(PID.TID 0000.0001) %MON dynstat_vvel_del2            =   1.1130646785631E-04
(PID.TID 0000.0001) %MON dynstat_wvel_max             =   2.2833774159940E+00
(PID.TID 0000.0001) %MON dynstat_wvel_min             =  -1.4708940794953E+00
(PID.TID 0000.0001) %MON dynstat_wvel_mean            =   3.9629892918037E-04
(PID.TID 0000.0001) %MON dynstat_wvel_sd              =   2.4265286413434E-01
(PID.TID 0000.0001) %MON dynstat_wvel_del2            =   3.3214769759782E-03
(PID.TID 0000.0001) %MON dynstat_theta_max            =   2.9935564914332E+01
(PID.TID 0000.0001) %MON dynstat_theta_min            =  -3.0112254127950E+00
(PID.TID 0000.0001) %MON dynstat_theta_mean           =   3.6033332454856E+00
(PID.TID 0000.0001) %MON dynstat_theta_sd             =   4.4022143085887E+00
(PID.TID 0000.0001) %MON dynstat_theta_del2           =   5.0052966235774E-03
(PID.TID 0000.0001) %MON dynstat_salt_max             =   3.7433262392590E+01
(PID.TID 0000.0001) %MON dynstat_salt_min             =   2.9773274798081E+01
(PID.TID 0000.0001) %MON dynstat_salt_mean            =   3.4718001170070E+01
(PID.TID 0000.0001) %MON dynstat_salt_sd              =   2.9441735918105E-01
(PID.TID 0000.0001) %MON dynstat_salt_del2            =   1.0266675259079E-03
(PID.TID 0000.0001) %MON forcing_qnet_max             =   4.3015360557608E+02
(PID.TID 0000.0001) %MON forcing_qnet_min             =  -1.9420685395356E+02
(PID.TID 0000.0001) %MON forcing_qnet_mean            =  -1.5816863697674E+01
(PID.TID 0000.0001) %MON forcing_qnet_sd              =   1.0931964867196E+02
(PID.TID 0000.0001) %MON forcing_qnet_del2            =   7.1579580491456E-01
(PID.TID 0000.0001) %MON forcing_qsw_max              =   0.0000000000000E+00
(PID.TID 0000.0001) %MON forcing_qsw_min              =   0.0000000000000E+00
(PID.TID 0000.0001) %MON forcing_qsw_mean             =   0.0000000000000E+00
(PID.TID 0000.0001) %MON forcing_qsw_sd               =   0.0000000000000E+00
(PID.TID 0000.0001) %MON forcing_qsw_del2             =   0.0000000000000E+00
(PID.TID 0000.0001) %MON forcing_empmr_max            =   5.2312924520654E-05
(PID.TID 0000.0001) %MON forcing_empmr_min            =  -1.3707940920787E-04
(PID.TID 0000.0001) %MON forcing_empmr_mean           =   8.1730272552535E-22
(PID.TID 0000.0001) %MON forcing_empmr_sd             =   2.3555038620025E-05
(PID.TID 0000.0001) %MON forcing_empmr_del2           =   2.4961915835152E-07
(PID.TID 0000.0001) %MON forcing_fu_max               =   2.7740635887467E-01
(PID.TID 0000.0001) %MON forcing_fu_min               =  -1.7755409971052E-01
(PID.TID 0000.0001) %MON forcing_fu_mean              =   1.6462201226836E-02
(PID.TID 0000.0001) %MON forcing_fu_sd                =   9.0170690393126E-02
(PID.TID 0000.0001) %MON forcing_fu_del2              =   6.7398852110683E-04
(PID.TID 0000.0001) %MON forcing_fv_max               =   2.1066218984909E-01
(PID.TID 0000.0001) %MON forcing_fv_min               =  -1.7119780411236E-01
(PID.TID 0000.0001) %MON forcing_fv_mean              =  -5.6744417720431E-03
(PID.TID 0000.0001) %MON forcing_fv_sd                =   4.6277587280153E-02
(PID.TID 0000.0001) %MON forcing_fv_del2              =   4.5034796430965E-04
(PID.TID 0000.0001) %MON advcfl_uvel_max              =   9.7153962839239E-02
(PID.TID 0000.0001) %MON advcfl_vvel_max              =   4.9372338247789E-02
(PID.TID 0000.0001) %MON advcfl_wvel_max              =   1.3701463651855E-01
(PID.TID 0000.0001) %MON advcfl_W_hf_max              =   1.5512692795412E-01
(PID.TID 0000.0001) %MON pe_b_mean                    =  -8.2948575472293E-03
(PID.TID 0000.0001) %MON ke_max                       =   1.2028666964937E-02
(PID.TID 0000.0001) %MON ke_mean                      =   9.3513809854195E-05
(PID.TID 0000.0001) %MON ke_vol                       =   1.3442141716554E+22
(PID.TID 0000.0001) %MON vort_r_min                   =  -5.0765829353074E-07
(PID.TID 0000.0001) %MON vort_r_max                   =   4.6139206125976E-07
(PID.TID 0000.0001) %MON vort_a_mean                  =  -2.4598204700388E-05
(PID.TID 0000.0001) %MON vort_a_sd                    =   7.3637242841619E-05
(PID.TID 0000.0001) %MON vort_p_mean                  =  -2.9476108630792E-05
(PID.TID 0000.0001) %MON vort_p_sd                    =   1.0363584140643E-04
(PID.TID 0000.0001) %MON surfExpan_theta_mean         =  -2.0976563682155E-03
(PID.TID 0000.0001) %MON surfExpan_salt_mean          =  -6.3311385082875E-05
(PID.TID 0000.0001) // =======================================================
(PID.TID 0000.0001) // End MONITOR dynamic field statistics
(PID.TID 0000.0001) // =======================================================
 EXTERNAL_FIELDS_LOAD,        12 : iP,iLd,i0,i1=    1    2    1    2 ; Wght=  0.7000000000  0.3000000000
 cg2d: Sum(rhs),rhsMax =  -1.80411241501588E-15  1.72999688348028E+02
(PID.TID 0000.0001)      cg2d_init_res =   2.58992963968149E-03
(PID.TID 0000.0001)      cg2d_iters(min,last) =      -1      88
(PID.TID 0000.0001)      cg2d_last_res =   8.43717242384516E-10
(PID.TID 0000.0001) // =======================================================
(PID.TID 0000.0001) // Begin MONITOR dynamic field statistics
(PID.TID 0000.0001) // =======================================================
(PID.TID 0000.0001) %MON time_tsnumber                =                    13
(PID.TID 0000.0001) %MON time_secondsf                =   2.2464000000000E+06
(PID.TID 0000.0001) %MON dynstat_eta_max              =   4.2917535922811E+04
(PID.TID 0000.0001) %MON dynstat_eta_min              =  -9.2458821401640E+04
(PID.TID 0000.0001) %MON dynstat_eta_mean             =   2.1939302981644E-12
(PID.TID 0000.0001) %MON dynstat_eta_sd               =   3.9481557059385E+04
(PID.TID 0000.0001) %MON dynstat_eta_del2             =   2.1197531062744E+03
(PID.TID 0000.0001) %MON dynstat_uvel_max             =   1.5947642408214E-01
(PID.TID 0000.0001) %MON dynstat_uvel_min             =  -7.4480609926608E-02
(PID.TID 0000.0001) %MON dynstat_uvel_mean            =   2.3250963658737E-04
(PID.TID 0000.0001) %MON dynstat_uvel_sd              =   1.0557318943346E-02
(PID.TID 0000.0001) %MON dynstat_uvel_del2            =   8.4893408338729E-05
(PID.TID 0000.0001) %MON dynstat_vvel_max             =   9.0836361723110E-02
(PID.TID 0000.0001) %MON dynstat_vvel_min             =  -1.3042076983176E-01
(PID.TID 0000.0001) %MON dynstat_vvel_mean            =  -5.1247754185850E-05
(PID.TID 0000.0001) %MON dynstat_vvel_sd              =   1.0909799789961E-02
(PID.TID 0000.0001) %MON dynstat_vvel_del2            =   1.1208288916538E-04
(PID.TID 0000.0001) %MON dynstat_wvel_max             =   2.4174649789808E+00
(PID.TID 0000.0001) %MON dynstat_wvel_min             =  -1.4402853784163E+00
(PID.TID 0000.0001) %MON dynstat_wvel_mean            =   3.0810364200013E-04
(PID.TID 0000.0001) %MON dynstat_wvel_sd              =   2.3975470170152E-01
(PID.TID 0000.0001) %MON dynstat_wvel_del2            =   3.2570477557593E-03
(PID.TID 0000.0001) %MON dynstat_theta_max            =   2.9958177842806E+01
(PID.TID 0000.0001) %MON dynstat_theta_min            =  -3.0663449989796E+00
(PID.TID 0000.0001) %MON dynstat_theta_mean           =   3.6034287698238E+00
(PID.TID 0000.0001) %MON dynstat_theta_sd             =   4.4024065437985E+00
(PID.TID 0000.0001) %MON dynstat_theta_del2           =   5.0013409854648E-03
(PID.TID 0000.0001) %MON dynstat_salt_max             =   3.7433075673010E+01
(PID.TID 0000.0001) %MON dynstat_salt_min             =   2.9771981215796E+01
(PID.TID 0000.0001) %MON dynstat_salt_mean            =   3.4718001184066E+01
(PID.TID 0000.0001) %MON dynstat_salt_sd              =   2.9441804908160E-01
(PID.TID 0000.0001) %MON dynstat_salt_del2            =   1.0288553613445E-03
(PID.TID 0000.0001) %MON forcing_qnet_max             =   4.2795289368731E+02
(PID.TID 0000.0001) %MON forcing_qnet_min             =  -1.9262233810258E+02
(PID.TID 0000.0001) %MON forcing_qnet_mean            =  -1.5933693470859E+01
(PID.TID 0000.0001) %MON forcing_qnet_sd              =   1.0714169415822E+02
(PID.TID 0000.0001) %MON forcing_qnet_del2            =   7.0598694006671E-01
(PID.TID 0000.0001) %MON forcing_qsw_max              =   0.0000000000000E+00
(PID.TID 0000.0001) %MON forcing_qsw_min              =   0.0000000000000E+00
(PID.TID 0000.0001) %MON forcing_qsw_mean             =   0.0000000000000E+00
(PID.TID 0000.0001) %MON forcing_qsw_sd               =   0.0000000000000E+00
(PID.TID 0000.0001) %MON forcing_qsw_del2             =   0.0000000000000E+00
(PID.TID 0000.0001) %MON forcing_empmr_max            =   5.2312924520654E-05
(PID.TID 0000.0001) %MON forcing_empmr_min            =  -1.3707940920787E-04
(PID.TID 0000.0001) %MON forcing_empmr_mean           =   6.1297704414401E-22
(PID.TID 0000.0001) %MON forcing_empmr_sd             =   2.3555038620025E-05
(PID.TID 0000.0001) %MON forcing_empmr_del2           =   2.4961915835152E-07
(PID.TID 0000.0001) %MON forcing_fu_max               =   2.7701420846661E-01
(PID.TID 0000.0001) %MON forcing_fu_min               =  -1.8087394768562E-01
(PID.TID 0000.0001) %MON forcing_fu_mean              =   1.6572075947137E-02
(PID.TID 0000.0001) %MON forcing_fu_sd                =   9.0055718697089E-02
(PID.TID 0000.0001) %MON forcing_fu_del2              =   6.6704501397243E-04
(PID.TID 0000.0001) %MON forcing_fv_max               =   2.0424529544041E-01
(PID.TID 0000.0001) %MON forcing_fv_min               =  -1.6921520461693E-01
(PID.TID 0000.0001) %MON forcing_fv_mean              =  -5.8064618969417E-03
(PID.TID 0000.0001) %MON forcing_fv_sd                =   4.5841182947436E-02
(PID.TID 0000.0001) %MON forcing_fv_del2              =   4.4528292007770E-04
(PID.TID 0000.0001) %MON advcfl_uvel_max              =   1.0285284363616E-01
(PID.TID 0000.0001) %MON advcfl_vvel_max              =   5.0677327761280E-02
(PID.TID 0000.0001) %MON advcfl_wvel_max              =   1.3499148393662E-01
(PID.TID 0000.0001) %MON advcfl_W_hf_max              =   1.5283633000932E-01
(PID.TID 0000.0001) %MON pe_b_mean                    =  -8.1012419714579E-03
(PID.TID 0000.0001) %MON ke_max                       =   1.3411833864878E-02
(PID.TID 0000.0001) %MON ke_mean                      =   1.0386957511846E-04
(PID.TID 0000.0001) %MON ke_vol                       =   1.3442141716554E+22
(PID.TID 0000.0001) %MON vort_r_min                   =  -5.2089598321854E-07
(PID.TID 0000.0001) %MON vort_r_max                   =   4.7203378547384E-07
(PID.TID 0000.0001) %MON vort_a_mean                  =  -2.4598204623882E-05
(PID.TID 0000.0001) %MON vort_a_sd                    =   7.3637214376235E-05
(PID.TID 0000.0001) %MON vort_p_mean                  =  -2.9476093775874E-05
(PID.TID 0000.0001) %MON vort_p_sd                    =   1.0363595578033E-04
(PID.TID 0000.0001) %MON surfExpan_theta_mean         =  -5.7217533060434E-04
(PID.TID 0000.0001) %MON surfExpan_salt_mean          =  -6.2014048092966E-05
(PID.TID 0000.0001) // =======================================================
(PID.TID 0000.0001) // End MONITOR dynamic field statistics
(PID.TID 0000.0001) // =======================================================
 EXTERNAL_FIELDS_LOAD,        13 : iP,iLd,i0,i1=    1    2    1    2 ; Wght=  0.6333333333  0.3666666667
 cg2d: Sum(rhs),rhsMax =  -2.41473507855972E-15  1.72999734336463E+02
(PID.TID 0000.0001)      cg2d_init_res =   2.59015023073538E-03
(PID.TID 0000.0001)      cg2d_iters(min,last) =      -1      88
(PID.TID 0000.0001)      cg2d_last_res =   9.91212548140117E-10
(PID.TID 0000.0001) // =======================================================
(PID.TID 0000.0001) // Begin MONITOR dynamic field statistics
(PID.TID 0000.0001) // =======================================================
(PID.TID 0000.0001) %MON time_tsnumber                =                    14
(PID.TID 0000.0001) %MON time_secondsf                =   2.4192000000000E+06
(PID.TID 0000.0001) %MON dynstat_eta_max              =   4.3098062515601E+04
(PID.TID 0000.0001) %MON dynstat_eta_min              =  -9.2545950992103E+04
(PID.TID 0000.0001) %MON dynstat_eta_mean             =  -1.7551442385315E-12
(PID.TID 0000.0001) %MON dynstat_eta_sd               =   3.9517150654209E+04
(PID.TID 0000.0001) %MON dynstat_eta_del2             =   2.1197305963033E+03
(PID.TID 0000.0001) %MON dynstat_uvel_max             =   1.6872401048133E-01
(PID.TID 0000.0001) %MON dynstat_uvel_min             =  -7.9961623585272E-02
(PID.TID 0000.0001) %MON dynstat_uvel_mean            =   1.7581504727021E-04
(PID.TID 0000.0001) %MON dynstat_uvel_sd              =   1.1526444537342E-02
(PID.TID 0000.0001) %MON dynstat_uvel_del2            =   8.8155456279711E-05
(PID.TID 0000.0001) %MON dynstat_vvel_max             =   9.0027962864525E-02
(PID.TID 0000.0001) %MON dynstat_vvel_min             =  -1.3227620345515E-01
(PID.TID 0000.0001) %MON dynstat_vvel_mean            =   1.2740449535232E-05
(PID.TID 0000.0001) %MON dynstat_vvel_sd              =   1.0941831723497E-02
(PID.TID 0000.0001) %MON dynstat_vvel_del2            =   1.1193446158276E-04
(PID.TID 0000.0001) %MON dynstat_wvel_max             =   2.5417573343111E+00
(PID.TID 0000.0001) %MON dynstat_wvel_min             =  -1.5090045590700E+00
(PID.TID 0000.0001) %MON dynstat_wvel_mean            =   2.1323383477638E-04
(PID.TID 0000.0001) %MON dynstat_wvel_sd              =   2.3507737109792E-01
(PID.TID 0000.0001) %MON dynstat_wvel_del2            =   3.1822104060958E-03
(PID.TID 0000.0001) %MON dynstat_theta_max            =   2.9976011731722E+01
(PID.TID 0000.0001) %MON dynstat_theta_min            =  -3.1167056710678E+00
(PID.TID 0000.0001) %MON dynstat_theta_mean           =   3.6035224923784E+00
(PID.TID 0000.0001) %MON dynstat_theta_sd             =   4.4026030298026E+00
(PID.TID 0000.0001) %MON dynstat_theta_del2           =   5.0067551678934E-03
(PID.TID 0000.0001) %MON dynstat_salt_max             =   3.7432973697175E+01
(PID.TID 0000.0001) %MON dynstat_salt_min             =   2.9770781924808E+01
(PID.TID 0000.0001) %MON dynstat_salt_mean            =   3.4718001180619E+01
(PID.TID 0000.0001) %MON dynstat_salt_sd              =   2.9440998138182E-01
(PID.TID 0000.0001) %MON dynstat_salt_del2            =   1.0324212785831E-03
(PID.TID 0000.0001) %MON forcing_qnet_max             =   4.2575218179855E+02
(PID.TID 0000.0001) %MON forcing_qnet_min             =  -1.9103782225161E+02
(PID.TID 0000.0001) %MON forcing_qnet_mean            =  -1.6050523244044E+01
(PID.TID 0000.0001) %MON forcing_qnet_sd              =   1.0504136369343E+02
(PID.TID 0000.0001) %MON forcing_qnet_del2            =   6.9794236533440E-01
(PID.TID 0000.0001) %MON forcing_qsw_max              =   0.0000000000000E+00
(PID.TID 0000.0001) %MON forcing_qsw_min              =   0.0000000000000E+00
(PID.TID 0000.0001) %MON forcing_qsw_mean             =   0.0000000000000E+00
(PID.TID 0000.0001) %MON forcing_qsw_sd               =   0.0000000000000E+00
(PID.TID 0000.0001) %MON forcing_qsw_del2             =   0.0000000000000E+00
(PID.TID 0000.0001) %MON forcing_empmr_max            =   5.2312924520654E-05
(PID.TID 0000.0001) %MON forcing_empmr_min            =  -1.3707940920787E-04
(PID.TID 0000.0001) %MON forcing_empmr_mean           =   4.0865136276267E-22
(PID.TID 0000.0001) %MON forcing_empmr_sd             =   2.3555038620025E-05
(PID.TID 0000.0001) %MON forcing_empmr_del2           =   2.4961915835152E-07
(PID.TID 0000.0001) %MON forcing_fu_max               =   2.7827951307352E-01
(PID.TID 0000.0001) %MON forcing_fu_min               =  -1.8419379566072E-01
(PID.TID 0000.0001) %MON forcing_fu_mean              =   1.6681950667438E-02
(PID.TID 0000.0001) %MON forcing_fu_sd                =   9.0011085349644E-02
(PID.TID 0000.0001) %MON forcing_fu_del2              =   6.6256853162117E-04
(PID.TID 0000.0001) %MON forcing_fv_max               =   1.9782840103172E-01
(PID.TID 0000.0001) %MON forcing_fv_min               =  -1.6723260512150E-01
(PID.TID 0000.0001) %MON forcing_fv_mean              =  -5.9384820218404E-03
(PID.TID 0000.0001) %MON forcing_fv_sd                =   4.5463770378877E-02
(PID.TID 0000.0001) %MON forcing_fv_del2              =   4.4233489700273E-04
(PID.TID 0000.0001) %MON advcfl_uvel_max              =   1.0780201374173E-01
(PID.TID 0000.0001) %MON advcfl_vvel_max              =   5.1398289752172E-02
(PID.TID 0000.0001) %MON advcfl_wvel_max              =   1.3022670220559E-01
(PID.TID 0000.0001) %MON advcfl_W_hf_max              =   1.4744168042233E-01
(PID.TID 0000.0001) %MON pe_b_mean                    =  -7.9340323799210E-03
(PID.TID 0000.0001) %MON ke_max                       =   1.4723577574961E-02
(PID.TID 0000.0001) %MON ke_mean                      =   1.1386535083825E-04
(PID.TID 0000.0001) %MON ke_vol                       =   1.3442141716554E+22
(PID.TID 0000.0001) %MON vort_r_min                   =  -5.1271989158742E-07
(PID.TID 0000.0001) %MON vort_r_max                   =   4.6739395260285E-07
(PID.TID 0000.0001) %MON vort_a_mean                  =  -2.4598204629941E-05
(PID.TID 0000.0001) %MON vort_a_sd                    =   7.3637197489506E-05
(PID.TID 0000.0001) %MON vort_p_mean                  =  -2.9476085098928E-05
(PID.TID 0000.0001) %MON vort_p_sd                    =   1.0363629832854E-04
(PID.TID 0000.0001) %MON surfExpan_theta_mean         =   4.7112097296498E-04
(PID.TID 0000.0001) %MON surfExpan_salt_mean          =  -4.8670664513612E-05
(PID.TID 0000.0001) // =======================================================
(PID.TID 0000.0001) // End MONITOR dynamic field statistics
(PID.TID 0000.0001) // =======================================================
 EXTERNAL_FIELDS_LOAD,        14 : iP,iLd,i0,i1=    1    2    1    2 ; Wght=  0.5666666667  0.4333333333
 cg2d: Sum(rhs),rhsMax =  -8.60422844084496E-16  1.72998043035563E+02
(PID.TID 0000.0001)      cg2d_init_res =   2.55701527198752E-03
(PID.TID 0000.0001)      cg2d_iters(min,last) =      -1      89
(PID.TID 0000.0001)      cg2d_last_res =   8.23320192697534E-10
(PID.TID 0000.0001) // =======================================================
(PID.TID 0000.0001) // Begin MONITOR dynamic field statistics
(PID.TID 0000.0001) // =======================================================
(PID.TID 0000.0001) %MON time_tsnumber                =                    15
(PID.TID 0000.0001) %MON time_secondsf                =   2.5920000000000E+06
(PID.TID 0000.0001) %MON dynstat_eta_max              =   4.4307394527166E+04
(PID.TID 0000.0001) %MON dynstat_eta_min              =  -9.2734851634806E+04
(PID.TID 0000.0001) %MON dynstat_eta_mean             =  -8.7757211926576E-13
(PID.TID 0000.0001) %MON dynstat_eta_sd               =   3.9585918082910E+04
(PID.TID 0000.0001) %MON dynstat_eta_del2             =   2.1196935513410E+03
(PID.TID 0000.0001) %MON dynstat_uvel_max             =   1.7653271293349E-01
(PID.TID 0000.0001) %MON dynstat_uvel_min             =  -8.4487719504702E-02
(PID.TID 0000.0001) %MON dynstat_uvel_mean            =   1.8384270385092E-04
(PID.TID 0000.0001) %MON dynstat_uvel_sd              =   1.2455092692775E-02
(PID.TID 0000.0001) %MON dynstat_uvel_del2            =   9.1570547073705E-05
(PID.TID 0000.0001) %MON dynstat_vvel_max             =   8.8300826408401E-02
(PID.TID 0000.0001) %MON dynstat_vvel_min             =  -1.3263447636320E-01
(PID.TID 0000.0001) %MON dynstat_vvel_mean            =   3.2274794747244E-05
(PID.TID 0000.0001) %MON dynstat_vvel_sd              =   1.0875973066680E-02
(PID.TID 0000.0001) %MON dynstat_vvel_del2            =   1.1106230927563E-04
(PID.TID 0000.0001) %MON dynstat_wvel_max             =   2.6566330927386E+00
(PID.TID 0000.0001) %MON dynstat_wvel_min             =  -1.5534523817641E+00
(PID.TID 0000.0001) %MON dynstat_wvel_mean            =   1.3005015072671E-04
(PID.TID 0000.0001) %MON dynstat_wvel_sd              =   2.2913206203603E-01
(PID.TID 0000.0001) %MON dynstat_wvel_del2            =   3.1040436480429E-03
(PID.TID 0000.0001) %MON dynstat_theta_max            =   2.9989121952631E+01
(PID.TID 0000.0001) %MON dynstat_theta_min            =  -3.1623682511733E+00
(PID.TID 0000.0001) %MON dynstat_theta_mean           =   3.6036150922050E+00
(PID.TID 0000.0001) %MON dynstat_theta_sd             =   4.4028290753536E+00
(PID.TID 0000.0001) %MON dynstat_theta_del2           =   5.0158762619435E-03
(PID.TID 0000.0001) %MON dynstat_salt_max             =   3.7432979992268E+01
(PID.TID 0000.0001) %MON dynstat_salt_min             =   2.9769633258720E+01
(PID.TID 0000.0001) %MON dynstat_salt_mean            =   3.4718001145163E+01
(PID.TID 0000.0001) %MON dynstat_salt_sd              =   2.9440938024996E-01
(PID.TID 0000.0001) %MON dynstat_salt_del2            =   1.0350043876370E-03
(PID.TID 0000.0001) %MON forcing_qnet_max             =   4.2355146990978E+02
(PID.TID 0000.0001) %MON forcing_qnet_min             =  -1.8945330640064E+02
(PID.TID 0000.0001) %MON forcing_qnet_mean            =  -1.6167353017229E+01
(PID.TID 0000.0001) %MON forcing_qnet_sd              =   1.0302340493407E+02
(PID.TID 0000.0001) %MON forcing_qnet_del2            =   6.9172363822900E-01
(PID.TID 0000.0001) %MON forcing_qsw_max              =   0.0000000000000E+00
(PID.TID 0000.0001) %MON forcing_qsw_min              =   0.0000000000000E+00
(PID.TID 0000.0001) %MON forcing_qsw_mean             =   0.0000000000000E+00
(PID.TID 0000.0001) %MON forcing_qsw_sd               =   0.0000000000000E+00
(PID.TID 0000.0001) %MON forcing_qsw_del2             =   0.0000000000000E+00
(PID.TID 0000.0001) %MON forcing_empmr_max            =   5.2312924520654E-05
(PID.TID 0000.0001) %MON forcing_empmr_min            =  -1.3707940920787E-04
(PID.TID 0000.0001) %MON forcing_empmr_mean           =   8.1730272552535E-22
(PID.TID 0000.0001) %MON forcing_empmr_sd             =   2.3555038620025E-05
(PID.TID 0000.0001) %MON forcing_empmr_del2           =   2.4961915835152E-07
(PID.TID 0000.0001) %MON forcing_fu_max               =   2.8105382984197E-01
(PID.TID 0000.0001) %MON forcing_fu_min               =  -1.8751364363583E-01
(PID.TID 0000.0001) %MON forcing_fu_mean              =   1.6791825387739E-02
(PID.TID 0000.0001) %MON forcing_fu_sd                =   9.0036894955837E-02
(PID.TID 0000.0001) %MON forcing_fu_del2              =   6.6060922781266E-04
(PID.TID 0000.0001) %MON forcing_fv_max               =   1.9141846475999E-01
(PID.TID 0000.0001) %MON forcing_fv_min               =  -1.6525000562607E-01
(PID.TID 0000.0001) %MON forcing_fv_mean              =  -6.0705021467390E-03
(PID.TID 0000.0001) %MON forcing_fv_sd                =   4.5146829053665E-02
(PID.TID 0000.0001) %MON forcing_fv_del2              =   4.4154630056010E-04
(PID.TID 0000.0001) %MON advcfl_uvel_max              =   1.1195150383664E-01
(PID.TID 0000.0001) %MON advcfl_vvel_max              =   5.1537503112229E-02
(PID.TID 0000.0001) %MON advcfl_wvel_max              =   1.2275543010604E-01
(PID.TID 0000.0001) %MON advcfl_W_hf_max              =   1.3898276305290E-01
(PID.TID 0000.0001) %MON pe_b_mean                    =  -7.8045408163668E-03
(PID.TID 0000.0001) %MON ke_max                       =   1.5940421836776E-02
(PID.TID 0000.0001) %MON ke_mean                      =   1.2330973894696E-04
(PID.TID 0000.0001) %MON ke_vol                       =   1.3442141716554E+22
(PID.TID 0000.0001) %MON vort_r_min                   =  -4.8915243352363E-07
(PID.TID 0000.0001) %MON vort_r_max                   =   5.0030029225841E-07
(PID.TID 0000.0001) %MON vort_a_mean                  =  -2.4598204706957E-05
(PID.TID 0000.0001) %MON vort_a_sd                    =   7.3637194716754E-05
(PID.TID 0000.0001) %MON vort_p_mean                  =  -2.9476081820235E-05
(PID.TID 0000.0001) %MON vort_p_sd                    =   1.0363675884390E-04
(PID.TID 0000.0001) %MON surfExpan_theta_mean         =   9.1964135199309E-04
(PID.TID 0000.0001) %MON surfExpan_salt_mean          =  -2.2339837260669E-05
(PID.TID 0000.0001) // =======================================================
(PID.TID 0000.0001) // End MONITOR dynamic field statistics
(PID.TID 0000.0001) // =======================================================
 EXTERNAL_FIELDS_LOAD,        15 : iP,iLd,i0,i1=    1    2    1    2 ; Wght=  0.5000000000  0.5000000000
 cg2d: Sum(rhs),rhsMax =   2.27595720048157E-15  1.72995439258582E+02
(PID.TID 0000.0001)      cg2d_init_res =   2.44651905212906E-03
(PID.TID 0000.0001)      cg2d_iters(min,last) =      -1      89
(PID.TID 0000.0001)      cg2d_last_res =   7.71630183872850E-10
(PID.TID 0000.0001) // =======================================================
(PID.TID 0000.0001) // Begin MONITOR dynamic field statistics
(PID.TID 0000.0001) // =======================================================
(PID.TID 0000.0001) %MON time_tsnumber                =                    16
(PID.TID 0000.0001) %MON time_secondsf                =   2.7648000000000E+06
(PID.TID 0000.0001) %MON dynstat_eta_max              =   4.6809593626671E+04
(PID.TID 0000.0001) %MON dynstat_eta_min              =  -9.2853038220471E+04
(PID.TID 0000.0001) %MON dynstat_eta_mean             =  -1.1408437550455E-11
(PID.TID 0000.0001) %MON dynstat_eta_sd               =   3.9658707280778E+04
(PID.TID 0000.0001) %MON dynstat_eta_del2             =   2.1196461123532E+03
(PID.TID 0000.0001) %MON dynstat_uvel_max             =   1.8361424196199E-01
(PID.TID 0000.0001) %MON dynstat_uvel_min             =  -8.7776727819419E-02
(PID.TID 0000.0001) %MON dynstat_uvel_mean            =   2.4877139828721E-04
(PID.TID 0000.0001) %MON dynstat_uvel_sd              =   1.3328566324611E-02
(PID.TID 0000.0001) %MON dynstat_uvel_del2            =   9.5128255339735E-05
(PID.TID 0000.0001) %MON dynstat_vvel_max             =   8.9032280418512E-02
(PID.TID 0000.0001) %MON dynstat_vvel_min             =  -1.3150417183371E-01
(PID.TID 0000.0001) %MON dynstat_vvel_mean            =   1.7153915370634E-05
(PID.TID 0000.0001) %MON dynstat_vvel_sd              =   1.0729272727125E-02
(PID.TID 0000.0001) %MON dynstat_vvel_del2            =   1.0969273244286E-04
(PID.TID 0000.0001) %MON dynstat_wvel_max             =   2.7616769468865E+00
(PID.TID 0000.0001) %MON dynstat_wvel_min             =  -1.5752407546680E+00
(PID.TID 0000.0001) %MON dynstat_wvel_mean            =   6.6566101486135E-05
(PID.TID 0000.0001) %MON dynstat_wvel_sd              =   2.2247060818924E-01
(PID.TID 0000.0001) %MON dynstat_wvel_del2            =   3.0290328804218E-03
(PID.TID 0000.0001) %MON dynstat_theta_max            =   2.9997520548436E+01
(PID.TID 0000.0001) %MON dynstat_theta_min            =  -3.2033937920727E+00
(PID.TID 0000.0001) %MON dynstat_theta_mean           =   3.6037083972858E+00
(PID.TID 0000.0001) %MON dynstat_theta_sd             =   4.4030758873858E+00
(PID.TID 0000.0001) %MON dynstat_theta_del2           =   5.0262672831230E-03
(PID.TID 0000.0001) %MON dynstat_salt_max             =   3.7433113089744E+01
(PID.TID 0000.0001) %MON dynstat_salt_min             =   2.9768471136948E+01
(PID.TID 0000.0001) %MON dynstat_salt_mean            =   3.4718001075199E+01
(PID.TID 0000.0001) %MON dynstat_salt_sd              =   2.9441218749514E-01
(PID.TID 0000.0001) %MON dynstat_salt_del2            =   1.0376527231732E-03
(PID.TID 0000.0001) %MON forcing_qnet_max             =   4.2135075802102E+02
(PID.TID 0000.0001) %MON forcing_qnet_min             =  -1.8786879054966E+02
(PID.TID 0000.0001) %MON forcing_qnet_mean            =  -1.6284182790414E+01
(PID.TID 0000.0001) %MON forcing_qnet_sd              =   1.0109275077866E+02
(PID.TID 0000.0001) %MON forcing_qnet_del2            =   6.8738031584655E-01
(PID.TID 0000.0001) %MON forcing_qsw_max              =   0.0000000000000E+00
(PID.TID 0000.0001) %MON forcing_qsw_min              =   0.0000000000000E+00
(PID.TID 0000.0001) %MON forcing_qsw_mean             =   0.0000000000000E+00
(PID.TID 0000.0001) %MON forcing_qsw_sd               =   0.0000000000000E+00
(PID.TID 0000.0001) %MON forcing_qsw_del2             =   0.0000000000000E+00
(PID.TID 0000.0001) %MON forcing_empmr_max            =   5.2312924520654E-05
(PID.TID 0000.0001) %MON forcing_empmr_min            =  -1.3707940920787E-04
(PID.TID 0000.0001) %MON forcing_empmr_mean           =   4.0865136276267E-22
(PID.TID 0000.0001) %MON forcing_empmr_sd             =   2.3555038620025E-05
(PID.TID 0000.0001) %MON forcing_empmr_del2           =   2.4961915835152E-07
(PID.TID 0000.0001) %MON forcing_fu_max               =   2.8382814661043E-01
(PID.TID 0000.0001) %MON forcing_fu_min               =  -1.9083349161093E-01
(PID.TID 0000.0001) %MON forcing_fu_mean              =   1.6901700108040E-02
(PID.TID 0000.0001) %MON forcing_fu_sd                =   9.0133087001675E-02
(PID.TID 0000.0001) %MON forcing_fu_del2              =   6.6118948040277E-04
(PID.TID 0000.0001) %MON forcing_fv_max               =   1.8921542366079E-01
(PID.TID 0000.0001) %MON forcing_fv_min               =  -1.6326740613065E-01
(PID.TID 0000.0001) %MON forcing_fv_mean              =  -6.2025222716376E-03
(PID.TID 0000.0001) %MON forcing_fv_sd                =   4.4891639796661E-02
(PID.TID 0000.0001) %MON forcing_fv_del2              =   4.4292866492091E-04
(PID.TID 0000.0001) %MON advcfl_uvel_max              =   1.1524088438090E-01
(PID.TID 0000.0001) %MON advcfl_vvel_max              =   5.1098303027877E-02
(PID.TID 0000.0001) %MON advcfl_wvel_max              =   1.1269105317069E-01
(PID.TID 0000.0001) %MON advcfl_W_hf_max              =   1.2758795213764E-01
(PID.TID 0000.0001) %MON pe_b_mean                    =  -7.7231317071671E-03
(PID.TID 0000.0001) %MON ke_max                       =   1.7045652534895E-02
(PID.TID 0000.0001) %MON ke_mean                      =   1.3210166595475E-04
(PID.TID 0000.0001) %MON ke_vol                       =   1.3442141716554E+22
(PID.TID 0000.0001) %MON vort_r_min                   =  -4.8675753869054E-07
(PID.TID 0000.0001) %MON vort_r_max                   =   5.2736626817707E-07
(PID.TID 0000.0001) %MON vort_a_mean                  =  -2.4598204832720E-05
(PID.TID 0000.0001) %MON vort_a_sd                    =   7.3637204477362E-05
(PID.TID 0000.0001) %MON vort_p_mean                  =  -2.9476082711321E-05
(PID.TID 0000.0001) %MON vort_p_sd                    =   1.0363721949966E-04
(PID.TID 0000.0001) %MON surfExpan_theta_mean         =   8.5028010410393E-04
(PID.TID 0000.0001) %MON surfExpan_salt_mean          =   1.3178732613305E-05
(PID.TID 0000.0001) // =======================================================
(PID.TID 0000.0001) // End MONITOR dynamic field statistics
(PID.TID 0000.0001) // =======================================================
 EXTERNAL_FIELDS_LOAD,        16 : iP,iLd,i0,i1=    1    2    1    2 ; Wght=  0.4333333333  0.5666666667
 cg2d: Sum(rhs),rhsMax =  -2.38697950294409E-15  1.72992418824421E+02
(PID.TID 0000.0001)      cg2d_init_res =   2.30148628236390E-03
(PID.TID 0000.0001)      cg2d_iters(min,last) =      -1      86
(PID.TID 0000.0001)      cg2d_last_res =   9.54577200047487E-10
(PID.TID 0000.0001) // =======================================================
(PID.TID 0000.0001) // Begin MONITOR dynamic field statistics
(PID.TID 0000.0001) // =======================================================
(PID.TID 0000.0001) %MON time_tsnumber                =                    17
(PID.TID 0000.0001) %MON time_secondsf                =   2.9376000000000E+06
(PID.TID 0000.0001) %MON dynstat_eta_max              =   4.8395597168684E+04
(PID.TID 0000.0001) %MON dynstat_eta_min              =  -9.2899389034517E+04
(PID.TID 0000.0001) %MON dynstat_eta_mean             =  -3.9490745366959E-12
(PID.TID 0000.0001) %MON dynstat_eta_sd               =   3.9709010554719E+04
(PID.TID 0000.0001) %MON dynstat_eta_del2             =   2.1195922386782E+03
(PID.TID 0000.0001) %MON dynstat_uvel_max             =   1.9106598809568E-01
(PID.TID 0000.0001) %MON dynstat_uvel_min             =  -9.1980732368389E-02
(PID.TID 0000.0001) %MON dynstat_uvel_mean            =   3.5063690927343E-04
(PID.TID 0000.0001) %MON dynstat_uvel_sd              =   1.4136501239567E-02
(PID.TID 0000.0001) %MON dynstat_uvel_del2            =   9.8782351481293E-05
(PID.TID 0000.0001) %MON dynstat_vvel_max             =   9.2081165438963E-02
(PID.TID 0000.0001) %MON dynstat_vvel_min             =  -1.2890437616577E-01
(PID.TID 0000.0001) %MON dynstat_vvel_mean            =  -1.5387789054464E-05
(PID.TID 0000.0001) %MON dynstat_vvel_sd              =   1.0522680443299E-02
(PID.TID 0000.0001) %MON dynstat_vvel_del2            =   1.0806053299096E-04
(PID.TID 0000.0001) %MON dynstat_wvel_max             =   2.8560116461540E+00
(PID.TID 0000.0001) %MON dynstat_wvel_min             =  -1.5787582028418E+00
(PID.TID 0000.0001) %MON dynstat_wvel_mean            =   2.2011919180443E-05
(PID.TID 0000.0001) %MON dynstat_wvel_sd              =   2.1567012675154E-01
(PID.TID 0000.0001) %MON dynstat_wvel_del2            =   2.9629114404751E-03
(PID.TID 0000.0001) %MON dynstat_theta_max            =   3.0001192105039E+01
(PID.TID 0000.0001) %MON dynstat_theta_min            =  -3.2398429147126E+00
(PID.TID 0000.0001) %MON dynstat_theta_mean           =   3.6038025109741E+00
(PID.TID 0000.0001) %MON dynstat_theta_sd             =   4.4033384483035E+00
(PID.TID 0000.0001) %MON dynstat_theta_del2           =   5.0359186490157E-03
(PID.TID 0000.0001) %MON dynstat_salt_max             =   3.7433384689600E+01
(PID.TID 0000.0001) %MON dynstat_salt_min             =   2.9767229986299E+01
(PID.TID 0000.0001) %MON dynstat_salt_mean            =   3.4718000980822E+01
(PID.TID 0000.0001) %MON dynstat_salt_sd              =   2.9441254311540E-01
(PID.TID 0000.0001) %MON dynstat_salt_del2            =   1.0410825364538E-03
(PID.TID 0000.0001) %MON forcing_qnet_max             =   4.1915004613225E+02
(PID.TID 0000.0001) %MON forcing_qnet_min             =  -1.8628427469869E+02
(PID.TID 0000.0001) %MON forcing_qnet_mean            =  -1.6401012563599E+01
(PID.TID 0000.0001) %MON forcing_qnet_sd              =   9.9254495988507E+01
(PID.TID 0000.0001) %MON forcing_qnet_del2            =   6.8494807548763E-01
(PID.TID 0000.0001) %MON forcing_qsw_max              =   0.0000000000000E+00
(PID.TID 0000.0001) %MON forcing_qsw_min              =   0.0000000000000E+00
(PID.TID 0000.0001) %MON forcing_qsw_mean             =   0.0000000000000E+00
(PID.TID 0000.0001) %MON forcing_qsw_sd               =   0.0000000000000E+00
(PID.TID 0000.0001) %MON forcing_qsw_del2             =   0.0000000000000E+00
(PID.TID 0000.0001) %MON forcing_empmr_max            =   5.2312924520654E-05
(PID.TID 0000.0001) %MON forcing_empmr_min            =  -1.3707940920787E-04
(PID.TID 0000.0001) %MON forcing_empmr_mean           =   8.1730272552535E-22
(PID.TID 0000.0001) %MON forcing_empmr_sd             =   2.3555038620025E-05
(PID.TID 0000.0001) %MON forcing_empmr_del2           =   2.4961915835152E-07
(PID.TID 0000.0001) %MON forcing_fu_max               =   2.8660246337888E-01
(PID.TID 0000.0001) %MON forcing_fu_min               =  -1.9415333958603E-01
(PID.TID 0000.0001) %MON forcing_fu_mean              =   1.7011574828341E-02
(PID.TID 0000.0001) %MON forcing_fu_sd                =   9.0299436561422E-02
(PID.TID 0000.0001) %MON forcing_fu_del2              =   6.6430263469806E-04
(PID.TID 0000.0001) %MON forcing_fv_max               =   1.8701238256158E-01
(PID.TID 0000.0001) %MON forcing_fv_min               =  -1.6128480663522E-01
(PID.TID 0000.0001) %MON forcing_fv_mean              =  -6.3345423965362E-03
(PID.TID 0000.0001) %MON forcing_fv_sd                =   4.4699260252941E-02
(PID.TID 0000.0001) %MON forcing_fv_del2              =   4.4646182492720E-04
(PID.TID 0000.0001) %MON advcfl_uvel_max              =   1.1854117462302E-01
(PID.TID 0000.0001) %MON advcfl_vvel_max              =   5.0088105822734E-02
(PID.TID 0000.0001) %MON advcfl_wvel_max              =   1.0022774466848E-01
(PID.TID 0000.0001) %MON advcfl_W_hf_max              =   1.1347708917278E-01
(PID.TID 0000.0001) %MON pe_b_mean                    =  -7.6975468143695E-03
(PID.TID 0000.0001) %MON ke_max                       =   1.8029018176419E-02
(PID.TID 0000.0001) %MON ke_mean                      =   1.4021133184535E-04
(PID.TID 0000.0001) %MON ke_vol                       =   1.3442141716554E+22
(PID.TID 0000.0001) %MON vort_r_min                   =  -5.1117805331424E-07
(PID.TID 0000.0001) %MON vort_r_max                   =   5.4881662398815E-07
(PID.TID 0000.0001) %MON vort_a_mean                  =  -2.4598204978984E-05
(PID.TID 0000.0001) %MON vort_a_sd                    =   7.3637222440279E-05
(PID.TID 0000.0001) %MON vort_p_mean                  =  -2.9476085560759E-05
(PID.TID 0000.0001) %MON vort_p_sd                    =   1.0363757613191E-04
(PID.TID 0000.0001) %MON surfExpan_theta_mean         =   4.6285905802325E-04
(PID.TID 0000.0001) %MON surfExpan_salt_mean          =   5.1906384392342E-05
(PID.TID 0000.0001) // =======================================================
(PID.TID 0000.0001) // End MONITOR dynamic field statistics
(PID.TID 0000.0001) // =======================================================
 EXTERNAL_FIELDS_LOAD,        17 : iP,iLd,i0,i1=    1    2    1    2 ; Wght=  0.3666666667  0.6333333333
 cg2d: Sum(rhs),rhsMax =  -7.77156117237610E-16  1.72989107582679E+02
(PID.TID 0000.0001)      cg2d_init_res =   2.20359591372381E-03
(PID.TID 0000.0001)      cg2d_iters(min,last) =      -1      84
(PID.TID 0000.0001)      cg2d_last_res =   8.59113710435538E-10
(PID.TID 0000.0001) // =======================================================
(PID.TID 0000.0001) // Begin MONITOR dynamic field statistics
(PID.TID 0000.0001) // =======================================================
(PID.TID 0000.0001) %MON time_tsnumber                =                    18
(PID.TID 0000.0001) %MON time_secondsf                =   3.1104000000000E+06
(PID.TID 0000.0001) %MON dynstat_eta_max              =   4.8822167138888E+04
(PID.TID 0000.0001) %MON dynstat_eta_min              =  -9.2836874536088E+04
(PID.TID 0000.0001) %MON dynstat_eta_mean             =   4.3878605963288E-13
(PID.TID 0000.0001) %MON dynstat_eta_sd               =   3.9722827890917E+04
(PID.TID 0000.0001) %MON dynstat_eta_del2             =   2.1195365656937E+03
(PID.TID 0000.0001) %MON dynstat_uvel_max             =   1.9697449578061E-01
(PID.TID 0000.0001) %MON dynstat_uvel_min             =  -9.5821627493688E-02
(PID.TID 0000.0001) %MON dynstat_uvel_mean            =   4.6503892267920E-04
(PID.TID 0000.0001) %MON dynstat_uvel_sd              =   1.4869963257437E-02
(PID.TID 0000.0001) %MON dynstat_uvel_del2            =   1.0245239992977E-04
(PID.TID 0000.0001) %MON dynstat_vvel_max             =   9.4657825732586E-02
(PID.TID 0000.0001) %MON dynstat_vvel_min             =  -1.2487338424986E-01
(PID.TID 0000.0001) %MON dynstat_vvel_mean            =  -4.7051247172558E-05
(PID.TID 0000.0001) %MON dynstat_vvel_sd              =   1.0279829545254E-02
(PID.TID 0000.0001) %MON dynstat_vvel_del2            =   1.0639437432378E-04
(PID.TID 0000.0001) %MON dynstat_wvel_max             =   2.9386496775363E+00
(PID.TID 0000.0001) %MON dynstat_wvel_min             =  -1.6448208305222E+00
(PID.TID 0000.0001) %MON dynstat_wvel_mean            =  -1.0043306496378E-05
(PID.TID 0000.0001) %MON dynstat_wvel_sd              =   2.0927755367264E-01
(PID.TID 0000.0001) %MON dynstat_wvel_del2            =   2.9099696182002E-03
(PID.TID 0000.0001) %MON dynstat_theta_max            =   3.0000108797788E+01
(PID.TID 0000.0001) %MON dynstat_theta_min            =  -3.2717729670840E+00
(PID.TID 0000.0001) %MON dynstat_theta_mean           =   3.6038975471389E+00
(PID.TID 0000.0001) %MON dynstat_theta_sd             =   4.4036211040041E+00
(PID.TID 0000.0001) %MON dynstat_theta_del2           =   5.0422009603475E-03
(PID.TID 0000.0001) %MON dynstat_salt_max             =   3.7433798698801E+01
(PID.TID 0000.0001) %MON dynstat_salt_min             =   2.9765857681870E+01
(PID.TID 0000.0001) %MON dynstat_salt_mean            =   3.4718000877917E+01
(PID.TID 0000.0001) %MON dynstat_salt_sd              =   2.9441371022078E-01
(PID.TID 0000.0001) %MON dynstat_salt_del2            =   1.0434703589236E-03
(PID.TID 0000.0001) %MON forcing_qnet_max             =   4.1694933424348E+02
(PID.TID 0000.0001) %MON forcing_qnet_min             =  -1.8469975884772E+02
(PID.TID 0000.0001) %MON forcing_qnet_mean            =  -1.6517842336784E+01
(PID.TID 0000.0001) %MON forcing_qnet_sd              =   9.7513866224350E+01
(PID.TID 0000.0001) %MON forcing_qnet_del2            =   6.8444729102208E-01
(PID.TID 0000.0001) %MON forcing_qsw_max              =   0.0000000000000E+00
(PID.TID 0000.0001) %MON forcing_qsw_min              =   0.0000000000000E+00
(PID.TID 0000.0001) %MON forcing_qsw_mean             =   0.0000000000000E+00
(PID.TID 0000.0001) %MON forcing_qsw_sd               =   0.0000000000000E+00
(PID.TID 0000.0001) %MON forcing_qsw_del2             =   0.0000000000000E+00
(PID.TID 0000.0001) %MON forcing_empmr_max            =   5.2312924520654E-05
(PID.TID 0000.0001) %MON forcing_empmr_min            =  -1.3707940920787E-04
(PID.TID 0000.0001) %MON forcing_empmr_mean           =   4.0865136276267E-22
(PID.TID 0000.0001) %MON forcing_empmr_sd             =   2.3555038620025E-05
(PID.TID 0000.0001) %MON forcing_empmr_del2           =   2.4961915835152E-07
(PID.TID 0000.0001) %MON forcing_fu_max               =   2.8937678014733E-01
(PID.TID 0000.0001) %MON forcing_fu_min               =  -1.9747318756114E-01
(PID.TID 0000.0001) %MON forcing_fu_mean              =   1.7121449548642E-02
(PID.TID 0000.0001) %MON forcing_fu_sd                =   9.0535556914754E-02
(PID.TID 0000.0001) %MON forcing_fu_del2              =   6.6991337968855E-04
(PID.TID 0000.0001) %MON forcing_fv_max               =   1.8480934146237E-01
(PID.TID 0000.0001) %MON forcing_fv_min               =  -1.6478836967949E-01
(PID.TID 0000.0001) %MON forcing_fv_mean              =  -6.4665625214348E-03
(PID.TID 0000.0001) %MON forcing_fv_sd                =   4.4570503746109E-02
(PID.TID 0000.0001) %MON forcing_fv_del2              =   4.5209535749048E-04
(PID.TID 0000.0001) %MON advcfl_uvel_max              =   1.2339977135152E-01
(PID.TID 0000.0001) %MON advcfl_vvel_max              =   4.8521791662887E-02
(PID.TID 0000.0001) %MON advcfl_wvel_max              =   9.8193682568117E-02
(PID.TID 0000.0001) %MON advcfl_W_hf_max              =   1.0854427161610E-01
(PID.TID 0000.0001) %MON pe_b_mean                    =  -7.7279693592746E-03
(PID.TID 0000.0001) %MON ke_max                       =   1.8885194199794E-02
(PID.TID 0000.0001) %MON ke_mean                      =   1.4762562393329E-04
(PID.TID 0000.0001) %MON ke_vol                       =   1.3442141716554E+22
(PID.TID 0000.0001) %MON vort_r_min                   =  -5.3088023516004E-07
(PID.TID 0000.0001) %MON vort_r_max                   =   5.6530074732997E-07
(PID.TID 0000.0001) %MON vort_a_mean                  =  -2.4598205117022E-05
(PID.TID 0000.0001) %MON vort_a_sd                    =   7.3637243265980E-05
(PID.TID 0000.0001) %MON vort_p_mean                  =  -2.9476088327661E-05
(PID.TID 0000.0001) %MON vort_p_sd                    =   1.0363776802348E-04
(PID.TID 0000.0001) %MON surfExpan_theta_mean         =  -2.3347005221869E-06
(PID.TID 0000.0001) %MON surfExpan_salt_mean          =   8.6742415088981E-05
(PID.TID 0000.0001) // =======================================================
(PID.TID 0000.0001) // End MONITOR dynamic field statistics
(PID.TID 0000.0001) // =======================================================
 EXTERNAL_FIELDS_LOAD,        18 : iP,iLd,i0,i1=    1    2    1    2 ; Wght=  0.3000000000  0.7000000000
 cg2d: Sum(rhs),rhsMax =  -6.38378239159465E-16  1.72985342495881E+02
(PID.TID 0000.0001)      cg2d_init_res =   2.17904899161640E-03
(PID.TID 0000.0001)      cg2d_iters(min,last) =      -1      87
(PID.TID 0000.0001)      cg2d_last_res =   8.61071241592013E-10
(PID.TID 0000.0001) // =======================================================
(PID.TID 0000.0001) // Begin MONITOR dynamic field statistics
(PID.TID 0000.0001) // =======================================================
(PID.TID 0000.0001) %MON time_tsnumber                =                    19
(PID.TID 0000.0001) %MON time_secondsf                =   3.2832000000000E+06
(PID.TID 0000.0001) %MON dynstat_eta_max              =   4.8201991588750E+04
(PID.TID 0000.0001) %MON dynstat_eta_min              =  -9.2715675079295E+04
(PID.TID 0000.0001) %MON dynstat_eta_mean             =   4.3878605963288E-12
(PID.TID 0000.0001) %MON dynstat_eta_sd               =   3.9702170791862E+04
(PID.TID 0000.0001) %MON dynstat_eta_del2             =   2.1194832264974E+03
(PID.TID 0000.0001) %MON dynstat_uvel_max             =   2.0126333904805E-01
(PID.TID 0000.0001) %MON dynstat_uvel_min             =  -9.9142791624930E-02
(PID.TID 0000.0001) %MON dynstat_uvel_mean            =   5.7024230679024E-04
(PID.TID 0000.0001) %MON dynstat_uvel_sd              =   1.5519991661424E-02
(PID.TID 0000.0001) %MON dynstat_uvel_del2            =   1.0603534176144E-04
(PID.TID 0000.0001) %MON dynstat_vvel_max             =   9.6785828344086E-02
(PID.TID 0000.0001) %MON dynstat_vvel_min             =  -1.1947559644210E-01
(PID.TID 0000.0001) %MON dynstat_vvel_mean            =  -6.3555286958698E-05
(PID.TID 0000.0001) %MON dynstat_vvel_sd              =   1.0025762048236E-02
(PID.TID 0000.0001) %MON dynstat_vvel_del2            =   1.0490196237400E-04
(PID.TID 0000.0001) %MON dynstat_wvel_max             =   3.0087710433153E+00
(PID.TID 0000.0001) %MON dynstat_wvel_min             =  -1.7743636130800E+00
(PID.TID 0000.0001) %MON dynstat_wvel_mean            =  -3.7332028794298E-05
(PID.TID 0000.0001) %MON dynstat_wvel_sd              =   2.0375612400702E-01
(PID.TID 0000.0001) %MON dynstat_wvel_del2            =   2.8729236381169E-03
(PID.TID 0000.0001) %MON dynstat_theta_max            =   2.9994242955828E+01
(PID.TID 0000.0001) %MON dynstat_theta_min            =  -3.2992357794833E+00
(PID.TID 0000.0001) %MON dynstat_theta_mean           =   3.6039936715461E+00
(PID.TID 0000.0001) %MON dynstat_theta_sd             =   4.4039241203489E+00
(PID.TID 0000.0001) %MON dynstat_theta_del2           =   5.0460346674079E-03
(PID.TID 0000.0001) %MON dynstat_salt_max             =   3.7434351053638E+01
(PID.TID 0000.0001) %MON dynstat_salt_min             =   2.9764325163350E+01
(PID.TID 0000.0001) %MON dynstat_salt_mean            =   3.4718000785353E+01
(PID.TID 0000.0001) %MON dynstat_salt_sd              =   2.9441551100274E-01
(PID.TID 0000.0001) %MON dynstat_salt_del2            =   1.0457695361872E-03
(PID.TID 0000.0001) %MON forcing_qnet_max             =   4.1474862235472E+02
(PID.TID 0000.0001) %MON forcing_qnet_min             =  -1.8311524299675E+02
(PID.TID 0000.0001) %MON forcing_qnet_mean            =  -1.6634672109969E+01
(PID.TID 0000.0001) %MON forcing_qnet_sd              =   9.5876178773768E+01
(PID.TID 0000.0001) %MON forcing_qnet_del2            =   6.8588219311561E-01
(PID.TID 0000.0001) %MON forcing_qsw_max              =   0.0000000000000E+00
(PID.TID 0000.0001) %MON forcing_qsw_min              =   0.0000000000000E+00
(PID.TID 0000.0001) %MON forcing_qsw_mean             =   0.0000000000000E+00
(PID.TID 0000.0001) %MON forcing_qsw_sd               =   0.0000000000000E+00
(PID.TID 0000.0001) %MON forcing_qsw_del2             =   0.0000000000000E+00
(PID.TID 0000.0001) %MON forcing_empmr_max            =   5.2312924520654E-05
(PID.TID 0000.0001) %MON forcing_empmr_min            =  -1.3707940920787E-04
(PID.TID 0000.0001) %MON forcing_empmr_mean           =   8.1730272552535E-22
(PID.TID 0000.0001) %MON forcing_empmr_sd             =   2.3555038620025E-05
(PID.TID 0000.0001) %MON forcing_empmr_del2           =   2.4961915835152E-07
(PID.TID 0000.0001) %MON forcing_fu_max               =   2.9215109691579E-01
(PID.TID 0000.0001) %MON forcing_fu_min               =  -2.0079303553624E-01
(PID.TID 0000.0001) %MON forcing_fu_mean              =   1.7231324268943E-02
(PID.TID 0000.0001) %MON forcing_fu_sd                =   9.0840904003179E-02
(PID.TID 0000.0001) %MON forcing_fu_del2              =   6.7795970857576E-04
(PID.TID 0000.0001) %MON forcing_fv_max               =   1.8260630036316E-01
(PID.TID 0000.0001) %MON forcing_fv_min               =  -1.7113216759969E-01
(PID.TID 0000.0001) %MON forcing_fv_mean              =  -6.5985826463334E-03
(PID.TID 0000.0001) %MON forcing_fv_sd                =   4.4505922467671E-02
(PID.TID 0000.0001) %MON forcing_fv_del2              =   4.5975205888607E-04
(PID.TID 0000.0001) %MON advcfl_uvel_max              =   1.2705951123800E-01
(PID.TID 0000.0001) %MON advcfl_vvel_max              =   4.6424384461008E-02
(PID.TID 0000.0001) %MON advcfl_wvel_max              =   9.7837749817769E-02
(PID.TID 0000.0001) %MON advcfl_W_hf_max              =   1.1403095758816E-01
(PID.TID 0000.0001) %MON pe_b_mean                    =  -7.8050815079622E-03
(PID.TID 0000.0001) %MON ke_max                       =   1.9611919093905E-02
(PID.TID 0000.0001) %MON ke_mean                      =   1.5431009794437E-04
(PID.TID 0000.0001) %MON ke_vol                       =   1.3442141716554E+22
(PID.TID 0000.0001) %MON vort_r_min                   =  -5.4550718250612E-07
(PID.TID 0000.0001) %MON vort_r_max                   =   5.7761806567978E-07
(PID.TID 0000.0001) %MON vort_a_mean                  =  -2.4598205223512E-05
(PID.TID 0000.0001) %MON vort_a_sd                    =   7.3637262194048E-05
(PID.TID 0000.0001) %MON vort_p_mean                  =  -2.9476089905847E-05
(PID.TID 0000.0001) %MON vort_p_sd                    =   1.0363777077252E-04
(PID.TID 0000.0001) %MON surfExpan_theta_mean         =  -3.3697057449066E-04
(PID.TID 0000.0001) %MON surfExpan_salt_mean          =   1.1214106788963E-04
(PID.TID 0000.0001) // =======================================================
(PID.TID 0000.0001) // End MONITOR dynamic field statistics
(PID.TID 0000.0001) // =======================================================
 EXTERNAL_FIELDS_LOAD,        19 : iP,iLd,i0,i1=    1    2    1    2 ; Wght=  0.2333333333  0.7666666667
 cg2d: Sum(rhs),rhsMax =   1.52655665885959E-15  1.72980804184838E+02
(PID.TID 0000.0001)      cg2d_init_res =   2.20603685757074E-03
(PID.TID 0000.0001)      cg2d_iters(min,last) =      -1      88
(PID.TID 0000.0001)      cg2d_last_res =   8.46020037097328E-10
(PID.TID 0000.0001) // =======================================================
(PID.TID 0000.0001) // Begin MONITOR dynamic field statistics
(PID.TID 0000.0001) // =======================================================
(PID.TID 0000.0001) %MON time_tsnumber                =                    20
(PID.TID 0000.0001) %MON time_secondsf                =   3.4560000000000E+06
(PID.TID 0000.0001) %MON dynstat_eta_max              =   4.6894909834466E+04
(PID.TID 0000.0001) %MON dynstat_eta_min              =  -9.2597469101363E+04
(PID.TID 0000.0001) %MON dynstat_eta_mean             =   4.3878605963288E-13
(PID.TID 0000.0001) %MON dynstat_eta_sd               =   3.9661017895256E+04
(PID.TID 0000.0001) %MON dynstat_eta_del2             =   2.1194358659907E+03
(PID.TID 0000.0001) %MON dynstat_uvel_max             =   2.0387746314920E-01
(PID.TID 0000.0001) %MON dynstat_uvel_min             =  -1.0181540875626E-01
(PID.TID 0000.0001) %MON dynstat_uvel_mean            =   6.5197593759851E-04
(PID.TID 0000.0001) %MON dynstat_uvel_sd              =   1.6077795777148E-02
(PID.TID 0000.0001) %MON dynstat_uvel_del2            =   1.0942217884157E-04
(PID.TID 0000.0001) %MON dynstat_vvel_max             =   9.8487052169944E-02
(PID.TID 0000.0001) %MON dynstat_vvel_min             =  -1.1280495989588E-01
(PID.TID 0000.0001) %MON dynstat_vvel_mean            =  -5.7599100100587E-05
(PID.TID 0000.0001) %MON dynstat_vvel_sd              =   9.7857494323233E-03
(PID.TID 0000.0001) %MON dynstat_vvel_del2            =   1.0375131706893E-04
(PID.TID 0000.0001) %MON dynstat_wvel_max             =   3.0658817336662E+00
(PID.TID 0000.0001) %MON dynstat_wvel_min             =  -1.8907080718655E+00
(PID.TID 0000.0001) %MON dynstat_wvel_mean            =  -6.5302406473765E-05
(PID.TID 0000.0001) %MON dynstat_wvel_sd              =   1.9944160570708E-01
(PID.TID 0000.0001) %MON dynstat_wvel_del2            =   2.8525247719062E-03
(PID.TID 0000.0001) %MON dynstat_theta_max            =   2.9983576474309E+01
(PID.TID 0000.0001) %MON dynstat_theta_min            =  -3.3222781880740E+00
(PID.TID 0000.0001) %MON dynstat_theta_mean           =   3.6040913978462E+00
(PID.TID 0000.0001) %MON dynstat_theta_sd             =   4.4042443339233E+00
(PID.TID 0000.0001) %MON dynstat_theta_del2           =   5.0483260395558E-03
(PID.TID 0000.0001) %MON dynstat_salt_max             =   3.7435234703380E+01
(PID.TID 0000.0001) %MON dynstat_salt_min             =   2.9762630244132E+01
(PID.TID 0000.0001) %MON dynstat_salt_mean            =   3.4718000717865E+01
(PID.TID 0000.0001) %MON dynstat_salt_sd              =   2.9441602270228E-01
(PID.TID 0000.0001) %MON dynstat_salt_del2            =   1.0479010629248E-03
(PID.TID 0000.0001) %MON forcing_qnet_max             =   4.1262853656621E+02
(PID.TID 0000.0001) %MON forcing_qnet_min             =  -1.8377875812820E+02
(PID.TID 0000.0001) %MON forcing_qnet_mean            =  -1.6751501883154E+01
(PID.TID 0000.0001) %MON forcing_qnet_sd              =   9.4346794458794E+01
(PID.TID 0000.0001) %MON forcing_qnet_del2            =   6.8924069239349E-01
(PID.TID 0000.0001) %MON forcing_qsw_max              =   0.0000000000000E+00
(PID.TID 0000.0001) %MON forcing_qsw_min              =   0.0000000000000E+00
(PID.TID 0000.0001) %MON forcing_qsw_mean             =   0.0000000000000E+00
(PID.TID 0000.0001) %MON forcing_qsw_sd               =   0.0000000000000E+00
(PID.TID 0000.0001) %MON forcing_qsw_del2             =   0.0000000000000E+00
(PID.TID 0000.0001) %MON forcing_empmr_max            =   5.2312924520654E-05
(PID.TID 0000.0001) %MON forcing_empmr_min            =  -1.3707940920787E-04
(PID.TID 0000.0001) %MON forcing_empmr_mean           =   4.0865136276267E-22
(PID.TID 0000.0001) %MON forcing_empmr_sd             =   2.3555038620025E-05
(PID.TID 0000.0001) %MON forcing_empmr_del2           =   2.4961915835152E-07
(PID.TID 0000.0001) %MON forcing_fu_max               =   2.9492541368424E-01
(PID.TID 0000.0001) %MON forcing_fu_min               =  -2.0411288351134E-01
(PID.TID 0000.0001) %MON forcing_fu_mean              =   1.7341198989244E-02
(PID.TID 0000.0001) %MON forcing_fu_sd                =   9.1214782607099E-02
(PID.TID 0000.0001) %MON forcing_fu_del2              =   6.8835621662477E-04
(PID.TID 0000.0001) %MON forcing_fv_max               =   1.8680120908603E-01
(PID.TID 0000.0001) %MON forcing_fv_min               =  -1.7747596551990E-01
(PID.TID 0000.0001) %MON forcing_fv_mean              =  -6.7306027712320E-03
(PID.TID 0000.0001) %MON forcing_fv_sd                =   4.4505795787846E-02
(PID.TID 0000.0001) %MON forcing_fv_del2              =   4.6933292157477E-04
(PID.TID 0000.0001) %MON advcfl_uvel_max              =   1.2942298311843E-01
(PID.TID 0000.0001) %MON advcfl_vvel_max              =   4.3832389067446E-02
(PID.TID 0000.0001) %MON advcfl_wvel_max              =   9.7574088892645E-02
(PID.TID 0000.0001) %MON advcfl_W_hf_max              =   1.1850984474391E-01
(PID.TID 0000.0001) %MON pe_b_mean                    =  -7.9128258455132E-03
(PID.TID 0000.0001) %MON ke_max                       =   2.0330601097390E-02
(PID.TID 0000.0001) %MON ke_mean                      =   1.6020620772004E-04
(PID.TID 0000.0001) %MON ke_vol                       =   1.3442141716554E+22
(PID.TID 0000.0001) %MON vort_r_min                   =  -5.5480794732755E-07
(PID.TID 0000.0001) %MON vort_r_max                   =   5.8651780044836E-07
(PID.TID 0000.0001) %MON vort_a_mean                  =  -2.4598205283585E-05
(PID.TID 0000.0001) %MON vort_a_sd                    =   7.3637276122243E-05
(PID.TID 0000.0001) %MON vort_p_mean                  =  -2.9476090358491E-05
(PID.TID 0000.0001) %MON vort_p_sd                    =   1.0363761061447E-04
(PID.TID 0000.0001) %MON surfExpan_theta_mean         =  -4.1817992879445E-04
(PID.TID 0000.0001) %MON surfExpan_salt_mean          =   1.2449106378444E-04
(PID.TID 0000.0001) // =======================================================
(PID.TID 0000.0001) // End MONITOR dynamic field statistics
(PID.TID 0000.0001) // =======================================================
(PID.TID 0000.0001) %CHECKPOINT        20 ckptA
(PID.TID 0000.0001)   Seconds in section "ALL                    [THE_MODEL_MAIN]":
(PID.TID 0000.0001)           User time:   15.000000000000000
(PID.TID 0000.0001)         System time:  4.00000000000000008E-002
(PID.TID 0000.0001)     Wall clock time:   15.126605033874512
(PID.TID 0000.0001)          No. starts:           1
(PID.TID 0000.0001)           No. stops:           1
(PID.TID 0000.0001)   Seconds in section "INITIALISE_FIXED       [THE_MODEL_MAIN]":
(PID.TID 0000.0001)           User time:  8.00000000000000017E-002
(PID.TID 0000.0001)         System time:  1.00000000000000002E-002
(PID.TID 0000.0001)     Wall clock time:  0.11145997047424316
(PID.TID 0000.0001)          No. starts:           1
(PID.TID 0000.0001)           No. stops:           1
(PID.TID 0000.0001)   Seconds in section "THE_MAIN_LOOP          [THE_MODEL_MAIN]":
(PID.TID 0000.0001)           User time:   14.920000000000000
(PID.TID 0000.0001)         System time:  2.99999999999999989E-002
(PID.TID 0000.0001)     Wall clock time:   15.015101909637451
(PID.TID 0000.0001)          No. starts:           1
(PID.TID 0000.0001)           No. stops:           1
(PID.TID 0000.0001)   Seconds in section "INITIALISE_VARIA    [THE_MAIN_LOOP]":
(PID.TID 0000.0001)           User time:  0.26000000000000001
(PID.TID 0000.0001)         System time:  1.99999999999999969E-002
(PID.TID 0000.0001)     Wall clock time:  0.29007196426391602
(PID.TID 0000.0001)          No. starts:           1
(PID.TID 0000.0001)           No. stops:           1
(PID.TID 0000.0001)   Seconds in section "MAIN LOOP           [THE_MAIN_LOOP]":
(PID.TID 0000.0001)           User time:   14.660000000000000
(PID.TID 0000.0001)         System time:  1.00000000000000019E-002
(PID.TID 0000.0001)     Wall clock time:   14.724998950958252
(PID.TID 0000.0001)          No. starts:           1
(PID.TID 0000.0001)           No. stops:           1
(PID.TID 0000.0001)   Seconds in section "MAIN_DO_LOOP        [THE_MAIN_LOOP]":
(PID.TID 0000.0001)           User time:   14.660000000000009
(PID.TID 0000.0001)         System time:  1.00000000000000019E-002
(PID.TID 0000.0001)     Wall clock time:   14.724809408187866
(PID.TID 0000.0001)          No. starts:          20
(PID.TID 0000.0001)           No. stops:          20
(PID.TID 0000.0001)   Seconds in section "FORWARD_STEP        [MAIN_DO_LOOP]":
(PID.TID 0000.0001)           User time:   14.660000000000009
(PID.TID 0000.0001)         System time:  1.00000000000000019E-002
(PID.TID 0000.0001)     Wall clock time:   14.724441289901733
(PID.TID 0000.0001)          No. starts:          20
(PID.TID 0000.0001)           No. stops:          20
(PID.TID 0000.0001)   Seconds in section "UPDATE_SURF_DR      [FORWARD_STEP]":
(PID.TID 0000.0001)           User time:  4.00000000000009237E-002
(PID.TID 0000.0001)         System time:   0.0000000000000000
(PID.TID 0000.0001)     Wall clock time:  1.99744701385498047E-002
(PID.TID 0000.0001)          No. starts:          40
(PID.TID 0000.0001)           No. stops:          40
(PID.TID 0000.0001)   Seconds in section "LOAD_FIELDS_DRIVER  [FORWARD_STEP]":
(PID.TID 0000.0001)           User time:  3.99999999999991473E-002
(PID.TID 0000.0001)         System time:   0.0000000000000000
(PID.TID 0000.0001)     Wall clock time:  2.98590660095214844E-002
(PID.TID 0000.0001)          No. starts:          20
(PID.TID 0000.0001)           No. stops:          20
(PID.TID 0000.0001)   Seconds in section "EXTERNAL_FLDS_LOAD [LOAD_FLDS_DRIVER]":
(PID.TID 0000.0001)           User time:  3.99999999999991473E-002
(PID.TID 0000.0001)         System time:   0.0000000000000000
(PID.TID 0000.0001)     Wall clock time:  2.94868946075439453E-002
(PID.TID 0000.0001)          No. starts:          20
(PID.TID 0000.0001)           No. stops:          20
(PID.TID 0000.0001)   Seconds in section "DO_ATMOSPHERIC_PHYS [FORWARD_STEP]":
(PID.TID 0000.0001)           User time:   0.0000000000000000
(PID.TID 0000.0001)         System time:   0.0000000000000000
(PID.TID 0000.0001)     Wall clock time:  1.88827514648437500E-004
(PID.TID 0000.0001)          No. starts:          20
(PID.TID 0000.0001)           No. stops:          20
(PID.TID 0000.0001)   Seconds in section "DO_OCEANIC_PHYS     [FORWARD_STEP]":
(PID.TID 0000.0001)           User time:  0.62000000000000277
(PID.TID 0000.0001)         System time:   0.0000000000000000
(PID.TID 0000.0001)     Wall clock time:  0.61420106887817383
(PID.TID 0000.0001)          No. starts:          20
(PID.TID 0000.0001)           No. stops:          20
(PID.TID 0000.0001)   Seconds in section "THERMODYNAMICS      [FORWARD_STEP]":
(PID.TID 0000.0001)           User time:   3.2300000000000022
(PID.TID 0000.0001)         System time:   0.0000000000000000
(PID.TID 0000.0001)     Wall clock time:   3.2217187881469727
(PID.TID 0000.0001)          No. starts:          20
(PID.TID 0000.0001)           No. stops:          20
(PID.TID 0000.0001)   Seconds in section "DYNAMICS            [FORWARD_STEP]":
(PID.TID 0000.0001)           User time:   4.5400000000000009
(PID.TID 0000.0001)         System time:   0.0000000000000000
(PID.TID 0000.0001)     Wall clock time:   4.6051976680755615
(PID.TID 0000.0001)          No. starts:          20
(PID.TID 0000.0001)           No. stops:          20
(PID.TID 0000.0001)   Seconds in section "UPDATE_CG2D         [FORWARD_STEP]":
(PID.TID 0000.0001)           User time:  0.10999999999999943
(PID.TID 0000.0001)         System time:   0.0000000000000000
(PID.TID 0000.0001)     Wall clock time:  0.12770938873291016
(PID.TID 0000.0001)          No. starts:          20
(PID.TID 0000.0001)           No. stops:          20
(PID.TID 0000.0001)   Seconds in section "SOLVE_FOR_PRESSURE  [FORWARD_STEP]":
(PID.TID 0000.0001)           User time:   2.7000000000000011
(PID.TID 0000.0001)         System time:   0.0000000000000000
(PID.TID 0000.0001)     Wall clock time:   2.7166383266448975
(PID.TID 0000.0001)          No. starts:          20
(PID.TID 0000.0001)           No. stops:          20
(PID.TID 0000.0001)   Seconds in section "MOM_CORRECTION_STEP [FORWARD_STEP]":
(PID.TID 0000.0001)           User time:  0.14000000000000057
(PID.TID 0000.0001)         System time:   0.0000000000000000
(PID.TID 0000.0001)     Wall clock time:  0.11495900154113770
(PID.TID 0000.0001)          No. starts:          20
(PID.TID 0000.0001)           No. stops:          20
(PID.TID 0000.0001)   Seconds in section "INTEGR_CONTINUITY   [FORWARD_STEP]":
(PID.TID 0000.0001)           User time:  0.35999999999999766
(PID.TID 0000.0001)         System time:   0.0000000000000000
(PID.TID 0000.0001)     Wall clock time:  0.35989141464233398
(PID.TID 0000.0001)          No. starts:          20
(PID.TID 0000.0001)           No. stops:          20
(PID.TID 0000.0001)   Seconds in section "CALC_SURF_DR      [FORWARD_STEP]":
(PID.TID 0000.0001)           User time:  1.99999999999995737E-002
(PID.TID 0000.0001)         System time:   0.0000000000000000
(PID.TID 0000.0001)     Wall clock time:  2.64642238616943359E-002
(PID.TID 0000.0001)          No. starts:          20
(PID.TID 0000.0001)           No. stops:          20
(PID.TID 0000.0001)   Seconds in section "TRC_CORRECTION_STEP [FORWARD_STEP]":
(PID.TID 0000.0001)           User time:  8.00000000000000711E-002
(PID.TID 0000.0001)         System time:  1.00000000000000019E-002
(PID.TID 0000.0001)     Wall clock time:  5.98306655883789063E-002
(PID.TID 0000.0001)          No. starts:          20
(PID.TID 0000.0001)           No. stops:          20
(PID.TID 0000.0001)   Seconds in section "BLOCKING_EXCHANGES  [FORWARD_STEP]":
(PID.TID 0000.0001)           User time:  9.99999999999978684E-003
(PID.TID 0000.0001)         System time:   0.0000000000000000
(PID.TID 0000.0001)     Wall clock time:  5.80637454986572266E-002
(PID.TID 0000.0001)          No. starts:          20
(PID.TID 0000.0001)           No. stops:          20
(PID.TID 0000.0001)   Seconds in section "DO_STATEVARS_TAVE   [FORWARD_STEP]":
(PID.TID 0000.0001)           User time:   1.1000000000000014
(PID.TID 0000.0001)         System time:   0.0000000000000000
(PID.TID 0000.0001)     Wall clock time:   1.0783648490905762
(PID.TID 0000.0001)          No. starts:          20
(PID.TID 0000.0001)           No. stops:          20
(PID.TID 0000.0001)   Seconds in section "MONITOR             [FORWARD_STEP]":
(PID.TID 0000.0001)           User time:   1.6100000000000030
(PID.TID 0000.0001)         System time:   0.0000000000000000
(PID.TID 0000.0001)     Wall clock time:   1.6300415992736816
(PID.TID 0000.0001)          No. starts:          20
(PID.TID 0000.0001)           No. stops:          20
(PID.TID 0000.0001)   Seconds in section "DO_THE_MODEL_IO     [FORWARD_STEP]":
(PID.TID 0000.0001)           User time:  1.99999999999995737E-002
(PID.TID 0000.0001)         System time:   0.0000000000000000
(PID.TID 0000.0001)     Wall clock time:  2.45265960693359375E-002
(PID.TID 0000.0001)          No. starts:          20
(PID.TID 0000.0001)           No. stops:          20
(PID.TID 0000.0001)   Seconds in section "DO_WRITE_PICKUP     [FORWARD_STEP]":
(PID.TID 0000.0001)           User time:  2.99999999999993605E-002
(PID.TID 0000.0001)         System time:   0.0000000000000000
(PID.TID 0000.0001)     Wall clock time:  3.20703983306884766E-002
(PID.TID 0000.0001)          No. starts:          20
(PID.TID 0000.0001)           No. stops:          20
(PID.TID 0000.0001) // ======================================================
(PID.TID 0000.0001) // Tile <-> Tile communication statistics
(PID.TID 0000.0001) // ======================================================
(PID.TID 0000.0001) // o Tile number: 000001
(PID.TID 0000.0001) //         No. X exchanges =              0
(PID.TID 0000.0001) //            Max. X spins =              0
(PID.TID 0000.0001) //            Min. X spins =     1000000000
(PID.TID 0000.0001) //          Total. X spins =              0
(PID.TID 0000.0001) //            Avg. X spins =       0.00E+00
(PID.TID 0000.0001) //         No. Y exchanges =              0
(PID.TID 0000.0001) //            Max. Y spins =              0
(PID.TID 0000.0001) //            Min. Y spins =     1000000000
(PID.TID 0000.0001) //          Total. Y spins =              0
(PID.TID 0000.0001) //            Avg. Y spins =       0.00E+00
(PID.TID 0000.0001) // o Tile number: 000002
(PID.TID 0000.0001) //         No. X exchanges =              0
(PID.TID 0000.0001) //            Max. X spins =              0
(PID.TID 0000.0001) //            Min. X spins =     1000000000
(PID.TID 0000.0001) //          Total. X spins =              0
(PID.TID 0000.0001) //            Avg. X spins =       0.00E+00
(PID.TID 0000.0001) //         No. Y exchanges =              0
(PID.TID 0000.0001) //            Max. Y spins =              0
(PID.TID 0000.0001) //            Min. Y spins =     1000000000
(PID.TID 0000.0001) //          Total. Y spins =              0
(PID.TID 0000.0001) //            Avg. Y spins =       0.00E+00
(PID.TID 0000.0001) // o Thread number: 000001
(PID.TID 0000.0001) //            No. barriers =          15490
(PID.TID 0000.0001) //      Max. barrier spins =              1
(PID.TID 0000.0001) //      Min. barrier spins =              1
(PID.TID 0000.0001) //     Total barrier spins =          15490
(PID.TID 0000.0001) //      Avg. barrier spins =       1.00E+00
PROGRAM MAIN: Execution ended Normally
