(PID.TID 0000.0001) 
(PID.TID 0000.0001) // ======================================================
(PID.TID 0000.0001) //                      MITgcm UV
(PID.TID 0000.0001) //                      =========
(PID.TID 0000.0001) // ======================================================
(PID.TID 0000.0001) // execution environment starting up...
(PID.TID 0000.0001) 
(PID.TID 0000.0001) // MITgcmUV version:  checkpoint62v
(PID.TID 0000.0001) // Build user:        jmc
(PID.TID 0000.0001) // Build host:        baudelaire
(PID.TID 0000.0001) // Build date:        Thu Apr 14 17:21:31 EDT 2011
(PID.TID 0000.0001) 
(PID.TID 0000.0001) // =======================================================
(PID.TID 0000.0001) // Execution Environment parameter file "eedata"
(PID.TID 0000.0001) // =======================================================
(PID.TID 0000.0001) ># Example "eedata" file
(PID.TID 0000.0001) ># Lines beginning "#" are comments
(PID.TID 0000.0001) ># nTx - No. threads per process in X
(PID.TID 0000.0001) ># nTy - No. threads per process in Y
(PID.TID 0000.0001) > &EEPARMS
(PID.TID 0000.0001) > nTx=1,
(PID.TID 0000.0001) > nTy=1,
(PID.TID 0000.0001) > /
(PID.TID 0000.0001) ># Note: Some systems use & as the
(PID.TID 0000.0001) ># namelist terminator. Other systems
(PID.TID 0000.0001) ># use a / character (as shown here).
(PID.TID 0000.0001) ># BUT some compilers do not understand "/"
(PID.TID 0000.0001) 
(PID.TID 0000.0001) // =======================================================
(PID.TID 0000.0001) // Computational Grid Specification ( see files "SIZE.h" )
(PID.TID 0000.0001) //                                  ( and "eedata"       )
(PID.TID 0000.0001) // =======================================================
(PID.TID 0000.0001)      nPx =    1 ; /* No. processes in X */
(PID.TID 0000.0001)      nPy =    1 ; /* No. processes in Y */
(PID.TID 0000.0001)      nSx =    1 ; /* No. tiles in X per process */
(PID.TID 0000.0001)      nSy =    2 ; /* No. tiles in Y per process */
(PID.TID 0000.0001)      sNx =   90 ; /* Tile size in X */
(PID.TID 0000.0001)      sNy =   20 ; /* Tile size in Y */
(PID.TID 0000.0001)      OLx =    2 ; /* Tile overlap distance in X */
(PID.TID 0000.0001)      OLy =    2 ; /* Tile overlap distance in Y */
(PID.TID 0000.0001)      nTx =    1 ; /* No. threads in X per process */
(PID.TID 0000.0001)      nTy =    1 ; /* No. threads in Y per process */
(PID.TID 0000.0001)       Nr =   15 ; /* No. levels in the vertical   */
(PID.TID 0000.0001)       Nx =   90 ; /* Total domain size in X ( = nPx*nSx*sNx ) */
(PID.TID 0000.0001)       Ny =   40 ; /* Total domain size in Y ( = nPy*nSy*sNy ) */
(PID.TID 0000.0001)   nTiles =    2 ; /* Total no. tiles per process ( = nSx*nSy ) */
(PID.TID 0000.0001)   nProcs =    1 ; /* Total no. processes ( = nPx*nPy ) */
(PID.TID 0000.0001) nThreads =    1 ; /* Total no. threads per process ( = nTx*nTy ) */
(PID.TID 0000.0001) usingMPI =    F ; /* Flag used to control whether MPI is in use */
(PID.TID 0000.0001)                   /*  note: To execute a program with MPI calls */
(PID.TID 0000.0001)                   /*  it must be launched appropriately e.g     */
(PID.TID 0000.0001)                   /*  "mpirun -np 64 ......"                    */
(PID.TID 0000.0001) useCoupler=    F ;/* Flag used to control communications with   */
(PID.TID 0000.0001)                   /*  other model components, through a coupler */
(PID.TID 0000.0001) printMapIncludesZeros=    F ; /* print zeros in Std.Output maps */
(PID.TID 0000.0001) maxLengthPrt1D=   65 /* maxLength of 1D array printed to StdOut */
(PID.TID 0000.0001) 
(PID.TID 0000.0001) // ======================================================
(PID.TID 0000.0001) // Mapping of tiles to threads
(PID.TID 0000.0001) // ======================================================
(PID.TID 0000.0001) // -o- Thread   1, tiles (   1:   1,   1:   2)
(PID.TID 0000.0001) 
(PID.TID 0000.0001) // ======================================================
(PID.TID 0000.0001) // Tile <-> Tile connectvity table
(PID.TID 0000.0001) // ======================================================
(PID.TID 0000.0001) // Tile number: 000001 (process no. = 000001)
(PID.TID 0000.0001) //        WEST: Tile = 000001, Process = 000001, Comm = put
(PID.TID 0000.0001) //                bi = 000001, bj = 000001
(PID.TID 0000.0001) //        EAST: Tile = 000001, Process = 000001, Comm = put
(PID.TID 0000.0001) //                bi = 000001, bj = 000001
(PID.TID 0000.0001) //       SOUTH: Tile = 000002, Process = 000001, Comm = put
(PID.TID 0000.0001) //                bi = 000001, bj = 000002
(PID.TID 0000.0001) //       NORTH: Tile = 000002, Process = 000001, Comm = put
(PID.TID 0000.0001) //                bi = 000001, bj = 000002
(PID.TID 0000.0001) // Tile number: 000002 (process no. = 000001)
(PID.TID 0000.0001) //        WEST: Tile = 000002, Process = 000001, Comm = put
(PID.TID 0000.0001) //                bi = 000001, bj = 000002
(PID.TID 0000.0001) //        EAST: Tile = 000002, Process = 000001, Comm = put
(PID.TID 0000.0001) //                bi = 000001, bj = 000002
(PID.TID 0000.0001) //       SOUTH: Tile = 000001, Process = 000001, Comm = put
(PID.TID 0000.0001) //                bi = 000001, bj = 000001
(PID.TID 0000.0001) //       NORTH: Tile = 000001, Process = 000001, Comm = put
(PID.TID 0000.0001) //                bi = 000001, bj = 000001
(PID.TID 0000.0001) 
(PID.TID 0000.0001) DEBUG_MSG: ENTERED S/R THE_MODEL_MAIN
(PID.TID 0000.0001) DEBUG_MSG: CALLING S/R INITIALISE_FIXED
(PID.TID 0000.0001)  INI_PARMS: opening model parameter file "data"
(PID.TID 0000.0001)  OPEN_COPY_DATA_FILE: opening file data
(PID.TID 0000.0001) // =======================================================
(PID.TID 0000.0001) // Parameter file "data"
(PID.TID 0000.0001) // =======================================================
(PID.TID 0000.0001) ># ====================
(PID.TID 0000.0001) ># | Model parameters |
(PID.TID 0000.0001) ># ====================
(PID.TID 0000.0001) >#
(PID.TID 0000.0001) ># Continuous equation parameters
(PID.TID 0000.0001) > &PARM01
(PID.TID 0000.0001) > tRef=15*20.,
(PID.TID 0000.0001) > sRef=15*35.,
(PID.TID 0000.0001) > viscAh =3.E5,
(PID.TID 0000.0001) > no_slip_sides=.TRUE.,
(PID.TID 0000.0001) > viscAr =1.721611620915750e5,
(PID.TID 0000.0001) >#viscAz =1.67E-3,
(PID.TID 0000.0001) > no_slip_bottom=.FALSE.,
(PID.TID 0000.0001) > diffKhT=1.E3,
(PID.TID 0000.0001) > diffKrT=5.154525811125000e3,
(PID.TID 0000.0001) >#diffKzT=0.5E-4,
(PID.TID 0000.0001) > diffKhS=1.E3,
(PID.TID 0000.0001) > diffKrS=5.154525811125000e3,
(PID.TID 0000.0001) >#diffKzS=0.5E-4,
(PID.TID 0000.0001) > implicitDiffusion=.TRUE.,
(PID.TID 0000.0001) > ivdc_kappa=1.030905162225000e9,
(PID.TID 0000.0001) >#ivdc_kappa=10.0,
(PID.TID 0000.0001) > rotationPeriod=86400.,
(PID.TID 0000.0001) > gravity=9.81,
(PID.TID 0000.0001) > rhonil=1035.,
(PID.TID 0000.0001) > rhoConstFresh=999.8,
(PID.TID 0000.0001) > buoyancyRelation='OCEANICP',
(PID.TID 0000.0001) > integr_GeoPot=1,
(PID.TID 0000.0001) > eosType='JMD95P',
(PID.TID 0000.0001) > useNHMTerms=.TRUE.,
(PID.TID 0000.0001) > rigidLid=.FALSE.,
(PID.TID 0000.0001) > implicitFreeSurface=.TRUE.,
(PID.TID 0000.0001) > exactConserv=.TRUE.,
(PID.TID 0000.0001) > nonlinFreeSurf=4,
(PID.TID 0000.0001) > hFacInf=0.2,
(PID.TID 0000.0001) > hFacSup=2.0,
(PID.TID 0000.0001) >#useRealFreshWaterFlux=.TRUE.,
(PID.TID 0000.0001) > readBinaryPrec=64,
(PID.TID 0000.0001) > writeBinaryPrec=64,
(PID.TID 0000.0001) > cosPower=0.5,
(PID.TID 0000.0001) > /
(PID.TID 0000.0001) >
(PID.TID 0000.0001) ># Elliptic solver parameters
(PID.TID 0000.0001) > &PARM02
(PID.TID 0000.0001) > cg2dMaxIters=200,
(PID.TID 0000.0001) > cg2dTargetResidual=1.E-9,
(PID.TID 0000.0001) > /
(PID.TID 0000.0001) >
(PID.TID 0000.0001) ># Time stepping parameters
(PID.TID 0000.0001) > &PARM03
(PID.TID 0000.0001) > startTime =           0.,
(PID.TID 0000.0001) > endTime   =     3456000.,
(PID.TID 0000.0001) ># after 100 years of intergration, one gets a reasonable flow field
(PID.TID 0000.0001) >#endTime   = 3110400000.,
(PID.TID 0000.0001) > deltaTmom      =   1200.0,
(PID.TID 0000.0001) > deltaTtracer   = 172800.0,
(PID.TID 0000.0001) > deltaTfreesurf = 172800.0,
(PID.TID 0000.0001) > deltaTClock    = 172800.0,
(PID.TID 0000.0001) > pChkptFreq  = 3110400000.,
(PID.TID 0000.0001) > dumpFreq    = 3110400000.,
(PID.TID 0000.0001) > taveFreq    = 3110400000.,
(PID.TID 0000.0001) > monitorFreq =   1.,
(PID.TID 0000.0001) > periodicExternalForcing=.TRUE.,
(PID.TID 0000.0001) > externForcingPeriod=2592000.,
(PID.TID 0000.0001) > externForcingCycle=31104000.,
(PID.TID 0000.0001) > tauThetaClimRelax=5184000.0,
(PID.TID 0000.0001) > abEps=0.1,
(PID.TID 0000.0001) > /
(PID.TID 0000.0001) >
(PID.TID 0000.0001) ># Gridding parameters
(PID.TID 0000.0001) > &PARM04
(PID.TID 0000.0001) > usingSphericalPolarGrid=.TRUE.,
(PID.TID 0000.0001) > dXspacing=4.,
(PID.TID 0000.0001) > dYspacing=4.,
(PID.TID 0000.0001) > Ro_SeaLevel=53023122.566084,
(PID.TID 0000.0001) > delR=7103300.720021, 6570548.440790, 6041670.010249,
(PID.TID 0000.0001) >      5516436.666057, 4994602.034410, 4475903.435290,
(PID.TID 0000.0001) >      3960063.245801, 3446790.312651, 2935781.405664,
(PID.TID 0000.0001) >      2426722.705046, 1919291.315988, 1413156.804970,
(PID.TID 0000.0001) >      1008846.750166,  705919.025481,  504089.693499,
(PID.TID 0000.0001) > ygOrigin=-80.,
(PID.TID 0000.0001) > /
(PID.TID 0000.0001) >
(PID.TID 0000.0001) ># Input datasets
(PID.TID 0000.0001) > &PARM05
(PID.TID 0000.0001) > bathyFile      ='topog.bin',
(PID.TID 0000.0001) > pLoadFile      ='deltageopotjmd95.bin',
(PID.TID 0000.0001) > hydrogThetaFile='lev_t.bin',
(PID.TID 0000.0001) > hydrogSaltFile ='lev_s.bin',
(PID.TID 0000.0001) > zonalWindFile  ='trenberth_taux.bin',
(PID.TID 0000.0001) > meridWindFile  ='trenberth_tauy.bin',
(PID.TID 0000.0001) > thetaClimFile  ='lev_sst.bin',
(PID.TID 0000.0001) >#saltClimFile   ='lev_sss.bin',
(PID.TID 0000.0001) > surfQFile      ='shi_qnet.bin',
(PID.TID 0000.0001) > EmPmRFile      ='shi_empmr.bin',
(PID.TID 0000.0001) > /
(PID.TID 0000.0001) 
(PID.TID 0000.0001)  INI_PARMS ; starts to read PARM01
(PID.TID 0000.0001)  INI_PARMS ; read PARM01 : OK
(PID.TID 0000.0001)  INI_PARMS ; starts to read PARM02
(PID.TID 0000.0001)  INI_PARMS ; read PARM02 : OK
(PID.TID 0000.0001)  INI_PARMS ; starts to read PARM03
(PID.TID 0000.0001)  INI_PARMS ; read PARM03 : OK
(PID.TID 0000.0001)  INI_PARMS ; starts to read PARM04
(PID.TID 0000.0001)  INI_PARMS ; read PARM04 : OK
(PID.TID 0000.0001)  INI_PARMS ; starts to read PARM05
(PID.TID 0000.0001)  INI_PARMS ; read PARM05 : OK
(PID.TID 0000.0001)  INI_PARMS: finished reading file "data"
(PID.TID 0000.0001)  PACKAGES_BOOT: opening data.pkg
(PID.TID 0000.0001)  OPEN_COPY_DATA_FILE: opening file data.pkg
(PID.TID 0000.0001) // =======================================================
(PID.TID 0000.0001) // Parameter file "data.pkg"
(PID.TID 0000.0001) // =======================================================
(PID.TID 0000.0001) ># Packages
(PID.TID 0000.0001) > &PACKAGES
(PID.TID 0000.0001) > /
(PID.TID 0000.0001) 
(PID.TID 0000.0001)  PACKAGES_BOOT: finished reading data.pkg
(PID.TID 0000.0001) SET_PARMS: done
(PID.TID 0000.0001) Enter INI_VERTICAL_GRID: setInterFDr=    T ; setCenterDr=    F
(PID.TID 0000.0001) %MON XC_max                       =   3.5800000000000E+02
(PID.TID 0000.0001) %MON XC_min                       =   2.0000000000000E+00
(PID.TID 0000.0001) %MON XC_mean                      =   1.8000000000000E+02
(PID.TID 0000.0001) %MON XC_sd                        =   1.0391663325314E+02
(PID.TID 0000.0001) %MON XG_max                       =   3.5600000000000E+02
(PID.TID 0000.0001) %MON XG_min                       =   0.0000000000000E+00
(PID.TID 0000.0001) %MON XG_mean                      =   1.7800000000000E+02
(PID.TID 0000.0001) %MON XG_sd                        =   1.0391663325314E+02
(PID.TID 0000.0001) %MON DXC_max                      =   4.4443898815675E+05
(PID.TID 0000.0001) %MON DXC_min                      =   9.2460385861875E+04
(PID.TID 0000.0001) %MON DXC_mean                     =   3.1372497618153E+05
(PID.TID 0000.0001) %MON DXC_sd                       =   1.1216447457560E+05
(PID.TID 0000.0001) %MON DXF_max                      =   4.4443898815675E+05
(PID.TID 0000.0001) %MON DXF_min                      =   9.2460385861875E+04
(PID.TID 0000.0001) %MON DXF_mean                     =   3.1372497618153E+05
(PID.TID 0000.0001) %MON DXF_sd                       =   1.1216447457560E+05
(PID.TID 0000.0001) %MON DXG_max                      =   4.4470989340816E+05
(PID.TID 0000.0001) %MON DXG_min                      =   7.7223062580781E+04
(PID.TID 0000.0001) %MON DXG_mean                     =   3.1353386340261E+05
(PID.TID 0000.0001) %MON DXG_sd                       =   1.1256651772502E+05
(PID.TID 0000.0001) %MON DXV_max                      =   4.4470989340816E+05
(PID.TID 0000.0001) %MON DXV_min                      =   7.7223062580781E+04
(PID.TID 0000.0001) %MON DXV_mean                     =   3.1353386340261E+05
(PID.TID 0000.0001) %MON DXV_sd                       =   1.1256651772502E+05
(PID.TID 0000.0001) %MON YC_max                       =   7.8000000000000E+01
(PID.TID 0000.0001) %MON YC_min                       =  -7.8000000000000E+01
(PID.TID 0000.0001) %MON YC_mean                      =   0.0000000000000E+00
(PID.TID 0000.0001) %MON YC_sd                        =   4.6173585522461E+01
(PID.TID 0000.0001) %MON YG_max                       =   7.6000000000000E+01
(PID.TID 0000.0001) %MON YG_min                       =  -8.0000000000000E+01
(PID.TID 0000.0001) %MON YG_mean                      =  -2.0000000000000E+00
(PID.TID 0000.0001) %MON YG_sd                        =   4.6173585522461E+01
(PID.TID 0000.0001) %MON DYC_max                      =   4.4470989340816E+05
(PID.TID 0000.0001) %MON DYC_min                      =   4.4470989340816E+05
(PID.TID 0000.0001) %MON DYC_mean                     =   4.4470989340817E+05
(PID.TID 0000.0001) %MON DYC_sd                       =   1.4668330550194E-08
(PID.TID 0000.0001) %MON DYF_max                      =   4.4470989340816E+05
(PID.TID 0000.0001) %MON DYF_min                      =   4.4470989340816E+05
(PID.TID 0000.0001) %MON DYF_mean                     =   4.4470989340817E+05
(PID.TID 0000.0001) %MON DYF_sd                       =   1.4668330550194E-08
(PID.TID 0000.0001) %MON DYG_max                      =   4.4470989340816E+05
(PID.TID 0000.0001) %MON DYG_min                      =   4.4470989340816E+05
(PID.TID 0000.0001) %MON DYG_mean                     =   4.4470989340817E+05
(PID.TID 0000.0001) %MON DYG_sd                       =   1.4668330550194E-08
(PID.TID 0000.0001) %MON DYU_max                      =   4.4470989340816E+05
(PID.TID 0000.0001) %MON DYU_min                      =   4.4470989340816E+05
(PID.TID 0000.0001) %MON DYU_mean                     =   4.4470989340817E+05
(PID.TID 0000.0001) %MON DYU_sd                       =   1.4668330550194E-08
(PID.TID 0000.0001) %MON RA_max                       =   1.9760627980089E+11
(PID.TID 0000.0001) %MON RA_min                       =   4.1109698667290E+10
(PID.TID 0000.0001) %MON RA_mean                      =   1.3948826965196E+11
(PID.TID 0000.0001) %MON RA_sd                        =   4.9870522472901E+10
(PID.TID 0000.0001) %MON RAW_max                      =   1.9760627980089E+11
(PID.TID 0000.0001) %MON RAW_min                      =   4.1109698667290E+10
(PID.TID 0000.0001) %MON RAW_mean                     =   1.3948826965196E+11
(PID.TID 0000.0001) %MON RAW_sd                       =   4.9870522472901E+10
(PID.TID 0000.0001) %MON RAS_max                      =   1.9772672958215E+11
(PID.TID 0000.0001) %MON RAS_min                      =   3.4334886267983E+10
(PID.TID 0000.0001) %MON RAS_mean                     =   1.3940329716694E+11
(PID.TID 0000.0001) %MON RAS_sd                       =   5.0049278732353E+10
(PID.TID 0000.0001) %MON RAZ_max                      =   1.9772672958215E+11
(PID.TID 0000.0001) %MON RAZ_min                      =   3.4334886267983E+10
(PID.TID 0000.0001) %MON RAZ_mean                     =   1.3940329716694E+11
(PID.TID 0000.0001) %MON RAZ_sd                       =   5.0049278732353E+10
(PID.TID 0000.0001) %MON AngleCS_max                  =   1.0000000000000E+00
(PID.TID 0000.0001) %MON AngleCS_min                  =   1.0000000000000E+00
(PID.TID 0000.0001) %MON AngleCS_mean                 =   1.0000000000000E+00
(PID.TID 0000.0001) %MON AngleCS_sd                   =   0.0000000000000E+00
(PID.TID 0000.0001) %MON AngleSN_max                  =   0.0000000000000E+00
(PID.TID 0000.0001) %MON AngleSN_min                  =   0.0000000000000E+00
(PID.TID 0000.0001) %MON AngleSN_mean                 =   0.0000000000000E+00
(PID.TID 0000.0001) %MON AngleSN_sd                   =   0.0000000000000E+00
(PID.TID 0000.0001)  MDS_READ_FIELD: opening global file: topog.bin
(PID.TID 0000.0001) // =======================================================
(PID.TID 0000.0001) // Field Model R_low (ini_masks_etc) at iteration          1
(PID.TID 0000.0001) // CMIN =          1.008622348308563E-06
(PID.TID 0000.0001) // CMAX =          1.008622348308563E-06
(PID.TID 0000.0001) // CINT =          0.000000000000000E+00
(PID.TID 0000.0001) // SYMBOLS (CMIN->CMAX): -abcdefghijklmnopqrstuvwxyz+
(PID.TID 0000.0001) //                  0.0: .
(PID.TID 0000.0001) // RANGE I (Lo:Hi:Step):(    -1:    92:     1)
(PID.TID 0000.0001) // RANGE J (Lo:Hi:Step):(    42:    -1:    -1)
(PID.TID 0000.0001) // RANGE K (Lo:Hi:Step):(   1:   1:   1)
(PID.TID 0000.0001) // =======================================================
(PID.TID 0000.0001) // =======================================================
(PID.TID 0000.0001) // END OF FIELD                                          =
(PID.TID 0000.0001) // =======================================================
(PID.TID 0000.0001) 
(PID.TID 0000.0001) // =======================================================
(PID.TID 0000.0001) // Field Model Ro_surf (ini_masks_etc) at iteration          1
(PID.TID 0000.0001) // CMIN =          1.008622348308563E-06
(PID.TID 0000.0001) // CMAX =          5.302312256608400E+07
(PID.TID 0000.0001) // CINT =          1.963819354299370E+06
(PID.TID 0000.0001) // SYMBOLS (CMIN->CMAX): -abcdefghijklmnopqrstuvwxyz+
(PID.TID 0000.0001) //                  0.0: .
(PID.TID 0000.0001) // RANGE I (Lo:Hi:Step):(    -1:    92:     1)
(PID.TID 0000.0001) // RANGE J (Lo:Hi:Step):(    42:    -1:    -1)
(PID.TID 0000.0001) // RANGE K (Lo:Hi:Step):(   1:   1:   1)
(PID.TID 0000.0001) // =======================================================
(PID.TID 0000.0001) K =   1
(PID.TID 0000.0001) //                I=8       I=18      I=28      I=38      I=48      I=58      I=68      I=78      I=88
(PID.TID 0000.0001) // |--J--|101234567|901234567|901234567|901234567|901234567|901234567|901234567|901234567|901234567|9012
(PID.TID 0000.0001) //     42 --------------------------------------------bbcdnttwwwttttqnnlfddc--abcc-----ccbcltttttba-----
(PID.TID 0000.0001) //     41 ----------------------------------------------------------------------------------------------
(PID.TID 0000.0001) //     40 innllaa-aaaaaaaaaaaaa------------------------------------------------------------------aaainnl
(PID.TID 0000.0001) //     39 gnnllibbaaaaaaaa---aa-----------------------------------------------------bdda--------abffgnnl
(PID.TID 0000.0001) //     38 nllllibbaaaaaaa-----------------------------------------------------------bddca------bccfgnlll
(PID.TID 0000.0001) //     37 nnnga------------------------------------------------------------------aa---bca---bggc--agnnng
(PID.TID 0000.0001) //     36 fgga-----------------------------------------nnaa--------------------aaaaaaabnnn-bllfggffcfgga
(PID.TID 0000.0001) //     35 aaaa---------------------------------aaaa--iinnqqa---atttn-----------aaa----annqqqnglllgddaaaa
(PID.TID 0000.0001) //     34 -------------------------------------affc-tticcfab-wwwttttn------------------anqttqqqtttna----
(PID.TID 0000.0001) //     33 a-------------------------------------ffa+++t+++++++++wwwtqna-----------------aifwwtnttttda---
(PID.TID 0000.0001) //     32 a-------------------------------------ag++++t++++++++++wwttnn----------------aaatwttqltttna---
(PID.TID 0000.0001) //     31 --------------------------------------++++++w++++++++++wwwtqn--------------iw++twwwtiltwwn----
(PID.TID 0000.0001) //     30 -------------------------------------t++++w++w+++++++++++++ww------------at++++twwwlgqtwwq----
(PID.TID 0000.0001) //     29 -----------------------------------gf++++t+++tqt+++++++++++wwt-----------w++w+++wtnqq++wtq----
(PID.TID 0000.0001) //     28 ---------------------------------actn+++++++++++++++++++wwwwwtq---------iw++++++wntww++wqa----
(PID.TID 0000.0001) //     27 ----------------cc--------------aftttlt++++++++w+nnw+++wwwwwwttt---aaac-iw++++++qt+++++t------
(PID.TID 0000.0001) //     26 ----------------cnn-----------afw+++wl+++++++++++qwtn++++++wwtttqg-aa-ii-c++++++tw++++wq------
(PID.TID 0000.0001) //     25 ----------------qttq---lla---atfw+++wl+++ww++qqtnt+++++++++wwtttqnn---iifnac+++wqw++wwqq------
(PID.TID 0000.0001) //     24 --------------cntwwtg-qqqa---ftt-++twn+++++++++++++++++++wwwwwttqnqqqf-afnnddwwwtw++++wt------
(PID.TID 0000.0001) //     23 --------------dttwwtl-ttqd---fff--tqtq++++ttw+++++w++++++wwwwwttqqqqqql----bbqwwwt++++ww------
(PID.TID 0000.0001) //     22 gii-----------wwwqttgnttqq---bb-dlqwwlltwwwwt++++++wt+w++wwwwwwtttqqqqii------dwwwttwwtwwigii-
(PID.TID 0000.0001) //     21 ++wqi--------nwwwwqtiwwwqqb-----dltwwqtttnwwt++++++wqwwwwwwwwwttttqnnill--------twwtqttwww++wq
(PID.TID 0000.0001) //     20 ++wwi-------nwwwwwtqwwwwqww------b-fqqqgiltttt+++++++wwwwwwwwwwtttqttqqn---------ntt+++ttw++ww
(PID.TID 0000.0001) //     19 ww++t-------qwwlittl+++qwwwwd---aba-----iannww++++t++++wwwwwwwwttqtttttt-----------w+++wqtww++
(PID.TID 0000.0001) //     22 gii-----------wwwqttgnttqq---bb-dlqwwlltwwwwt++++++wt+w++wwwwwwtttqqqqii------dwwwttwwtwwigii-
(PID.TID 0000.0001) //     21 ++wqi--------nwwwwqtiwwwqqb-----dltwwqtttnwwt++++++wqwwwwwwwwwttttqnnill--------twwtqttwww++wq
(PID.TID 0000.0001) //     20 ++wwi-------nwwwwwtqwwwwqww------b-fqqqgiltttt+++++++wwwwwwwwwwtttqttqqn---------ntt+++ttw++ww
(PID.TID 0000.0001) //     19 ww++t-------qwwlittl+++qwwwwd---aba-----iannww++++t++++wwwwwwwwttqtttttt-----------w+++wqtww++
(PID.TID 0000.0001) //     18 w+++w-------qtnttfqq+++qwww++w+qfaa---iiblntwwwwtwtq+++wwtwwwwwtqtttttwwa----------w+++wqtw+++
(PID.TID 0000.0001) //     17 w+++w-------q-twwdqt+++l+++++++qf-----iilnninnnltwww++wwwttttttnqttqtwwwq---------tw+++wqtw+++
(PID.TID 0000.0001) //     16 w+++w------gn-wwtnntw++i++++++nf-------flnnfnnndf+++wwqflnttttqntttttwwwqt--------it+++wqtw+++
(PID.TID 0000.0001) //     15 w++wlb----aqq-wwwttnwwwnw+++++f---------lggdllnf++++wwwwwtqtttqqtttttwwqttt------atw+++wqtw++w
(PID.TID 0000.0001) //     14 w++nwn----dwwi+++tqqqtwnw++w+tb---------ttgglttg++++++wwtwttqqqnqttqqqqtttt-----aqtw+++wntw++n
(PID.TID 0000.0001) //     13 wwn++t----nwwl+++qwwtqttliiw++n---------wwggittg++++++++wwwtttqqnqqttqttttl----aqttlwwwtntwwn+
(PID.TID 0000.0001) //     12 tt+++wdaqttwwnwntwwwtntqttww++wt+++a----wwigiilw+++++++++wwqtttqqqqqtttttt-----qwwwwttttnttt++
(PID.TID 0000.0001) //     11 tw+++w++qtwwwnnt++wwtlttttwww++++++++--wwwwng-nw+w+++++++++wwwtqntttqqtttt----n+++++wwtqnqtw++
(PID.TID 0000.0001) //     10 tw++ww+w++wtiqqt++wwtqnnnqttwwww+++++w-wwwwtd-nbiw+++++++++wwwtqnttwwttqtq--ad++++++wwttnqtw++
(PID.TID 0000.0001) //      9 ttwwwww+++llglntwtwtqqqttnnnttwwwwwwwwnwwwwt-fbt+++++++++++wwwtnqttwwwttqf-aad++++++wwwtqnttww
(PID.TID 0000.0001) //      8 tttqqqw++twwttwwwwfblqttttttnqqqttqqqtwtwwticfw++++++wwwwwwwttqnttwwwwwwta-aacttn++wtwwwtntttq
(PID.TID 0000.0001) //      7 ninnwwqqt++wnw++wwtgcqtwwwttwwwwwwwttnttwwntw++++++wwwwtttqtqnnttwww+++wwt-aaaintgfqtqwwwtninn
(PID.TID 0000.0001) //      6 w++++++++++++++++wwwnggwwwwwwwwwwwwwwtqqqqttw++++wwwtqnnqnwtww+++w+w+++wwwtqqqqtilnniwtqtww+++
(PID.TID 0000.0001) //      5 +++++++++++++++++wwwttttwwwwwwwwwwwwwtqqqlnlwwwwtttnnnqtwwww++++++++w+wwwwtqqqgitwwwwww+++++++
(PID.TID 0000.0001) //      4 ++tw++++++wwwqttttqqqttqqlbdnnllqqlnqqqqqnnnlnqlnnntttwwwwww+++++++wwwwwttnb--cqtwwwwww+++++tw
(PID.TID 0000.0001) //      3 ttttilqqqdcc----------------------------cclgnqqqqttwwwwwwwwwtttttwwwwttqqbb--ciqtwwwwwwwwttttt
(PID.TID 0000.0001) //      2 --------------------------------------------bbcdnttwwwttttqnnlfddc--abcc-----ccbcltttttba-----
(PID.TID 0000.0001) //      1 ----------------------------------------------------------------------------------------------
(PID.TID 0000.0001) //      0 innllaa-aaaaaaaaaaaaa------------------------------------------------------------------aaainnl
(PID.TID 0000.0001) //     -1 gnnllibbaaaaaaaa---aa-----------------------------------------------------bdda--------abffgnnl
(PID.TID 0000.0001) // =======================================================
(PID.TID 0000.0001) // END OF FIELD                                          =
(PID.TID 0000.0001) // =======================================================
(PID.TID 0000.0001) 
(PID.TID 0000.0001) // =======================================================
(PID.TID 0000.0001) // Field hFacC at iteration          1
(PID.TID 0000.0001) // CMIN =          1.000000000000000E+00
(PID.TID 0000.0001) // CMAX =          1.000000000000000E+00
(PID.TID 0000.0001) // CINT =          0.000000000000000E+00
(PID.TID 0000.0001) // SYMBOLS (CMIN->CMAX): -abcdefghijklmnopqrstuvwxyz+
(PID.TID 0000.0001) //                  0.0: .
(PID.TID 0000.0001) // RANGE I (Lo:Hi:Step):(    -1:    92:     1)
(PID.TID 0000.0001) // RANGE J (Lo:Hi:Step):(    42:    -1:    -1)
(PID.TID 0000.0001) // RANGE K (Lo:Hi:Step):(   1:   1:   1)
(PID.TID 0000.0001) // =======================================================
(PID.TID 0000.0001) // =======================================================
(PID.TID 0000.0001) // END OF FIELD                                          =
(PID.TID 0000.0001) // =======================================================
(PID.TID 0000.0001) 
(PID.TID 0000.0001) // =======================================================
(PID.TID 0000.0001) // Field hFacW at iteration          1
(PID.TID 0000.0001) // CMIN =          1.000000000000000E+00
(PID.TID 0000.0001) // CMAX =          1.000000000000000E+00
(PID.TID 0000.0001) // CINT =          0.000000000000000E+00
(PID.TID 0000.0001) // SYMBOLS (CMIN->CMAX): -abcdefghijklmnopqrstuvwxyz+
(PID.TID 0000.0001) //                  0.0: .
(PID.TID 0000.0001) // RANGE I (Lo:Hi:Step):(    -1:    92:     1)
(PID.TID 0000.0001) // RANGE J (Lo:Hi:Step):(    42:    -1:    -1)
(PID.TID 0000.0001) // RANGE K (Lo:Hi:Step):(   1:   1:   1)
(PID.TID 0000.0001) // =======================================================
(PID.TID 0000.0001) // =======================================================
(PID.TID 0000.0001) // END OF FIELD                                          =
(PID.TID 0000.0001) // =======================================================
(PID.TID 0000.0001) 
(PID.TID 0000.0001) // =======================================================
(PID.TID 0000.0001) // Field hFacS at iteration          1
(PID.TID 0000.0001) // CMIN =          1.000000000000000E+00
(PID.TID 0000.0001) // CMAX =          1.000000000000000E+00
(PID.TID 0000.0001) // CINT =          0.000000000000000E+00
(PID.TID 0000.0001) // SYMBOLS (CMIN->CMAX): -abcdefghijklmnopqrstuvwxyz+
(PID.TID 0000.0001) //                  0.0: .
(PID.TID 0000.0001) // RANGE I (Lo:Hi:Step):(    -1:    92:     1)
(PID.TID 0000.0001) // RANGE J (Lo:Hi:Step):(    42:    -1:    -1)
(PID.TID 0000.0001) // RANGE K (Lo:Hi:Step):(   1:   1:   1)
(PID.TID 0000.0001) // =======================================================
(PID.TID 0000.0001) // =======================================================
(PID.TID 0000.0001) // END OF FIELD                                          =
(PID.TID 0000.0001) // =======================================================
(PID.TID 0000.0001) 
(PID.TID 0000.0001) GAD_INIT_FIXED: GAD_OlMinSize=  1  0  1
(PID.TID 0000.0001) 
(PID.TID 0000.0001) // ===================================
(PID.TID 0000.0001) // GAD parameters :
(PID.TID 0000.0001) // ===================================
(PID.TID 0000.0001) tempAdvScheme =   /* Temp. Horiz.Advection scheme selector */
(PID.TID 0000.0001)                       2
(PID.TID 0000.0001)     ;
(PID.TID 0000.0001) tempVertAdvScheme =   /* Temp. Vert. Advection scheme selector */
(PID.TID 0000.0001)                       2
(PID.TID 0000.0001)     ;
(PID.TID 0000.0001) tempMultiDimAdvec =   /* use Muti-Dim Advec method for Temp */
(PID.TID 0000.0001)                   F
(PID.TID 0000.0001)     ;
(PID.TID 0000.0001) tempSOM_Advection = /* use 2nd Order Moment Advection for Temp */
(PID.TID 0000.0001)                   F
(PID.TID 0000.0001)     ;
(PID.TID 0000.0001) AdamsBashforthGt = /* apply Adams-Bashforth extrapolation on Gt */
(PID.TID 0000.0001)                   T
(PID.TID 0000.0001)     ;
(PID.TID 0000.0001) AdamsBashforth_T = /* apply Adams-Bashforth extrapolation on Temp */
(PID.TID 0000.0001)                   F
(PID.TID 0000.0001)     ;
(PID.TID 0000.0001) saltAdvScheme =   /* Salt. Horiz.advection scheme selector */
(PID.TID 0000.0001)                       2
(PID.TID 0000.0001)     ;
(PID.TID 0000.0001) saltVertAdvScheme =   /* Salt. Vert. Advection scheme selector */
(PID.TID 0000.0001)                       2
(PID.TID 0000.0001)     ;
(PID.TID 0000.0001) saltMultiDimAdvec =   /* use Muti-Dim Advec method for Salt */
(PID.TID 0000.0001)                   F
(PID.TID 0000.0001)     ;
(PID.TID 0000.0001) saltSOM_Advection = /* use 2nd Order Moment Advection for Salt */
(PID.TID 0000.0001)                   F
(PID.TID 0000.0001)     ;
(PID.TID 0000.0001) AdamsBashforthGs = /* apply Adams-Bashforth extrapolation on Gs */
(PID.TID 0000.0001)                   T
(PID.TID 0000.0001)     ;
(PID.TID 0000.0001) AdamsBashforth_S = /* apply Adams-Bashforth extrapolation on Salt */
(PID.TID 0000.0001)                   F
(PID.TID 0000.0001)     ;
(PID.TID 0000.0001) // ===================================
(PID.TID 0000.0001) %MON fCori_max                    =   1.4226580169407E-04
(PID.TID 0000.0001) %MON fCori_min                    =  -1.4226580169407E-04
(PID.TID 0000.0001) %MON fCori_mean                   =  -2.6213599192538E-19
(PID.TID 0000.0001) %MON fCori_sd                     =   9.6335367303779E-05
(PID.TID 0000.0001) %MON fCoriG_max                   =   1.4112379284621E-04
(PID.TID 0000.0001) %MON fCoriG_min                   =  -1.4323448157692E-04
(PID.TID 0000.0001) %MON fCoriG_mean                  =  -3.5808620394224E-06
(PID.TID 0000.0001) %MON fCoriG_sd                    =   9.6285194120964E-05
(PID.TID 0000.0001) %MON fCoriCos_max                 =   1.4535550371427E-04
(PID.TID 0000.0001) %MON fCoriCos_min                 =   3.0239529651320E-05
(PID.TID 0000.0001) %MON fCoriCos_mean                =   1.0260497651149E-04
(PID.TID 0000.0001) %MON fCoriCos_sd                  =   3.6683828681187E-05
(PID.TID 0000.0001) INI_CG2D: CG2D normalisation factor =  6.0025789459946987E-09
(PID.TID 0000.0001) 
(PID.TID 0000.0001) // =======================================================
(PID.TID 0000.0001) // Model configuration
(PID.TID 0000.0001) // =======================================================
(PID.TID 0000.0001) //
(PID.TID 0000.0001) // "Physical" paramters ( PARM01 in namelist )
(PID.TID 0000.0001) //
(PID.TID 0000.0001) buoyancyRelation = /* Type of relation to get Buoyancy */
(PID.TID 0000.0001)               'OCEANICP'
(PID.TID 0000.0001)     ;
(PID.TID 0000.0001) fluidIsAir   =  /* fluid major constituent is Air */
(PID.TID 0000.0001)                   F
(PID.TID 0000.0001)     ;
(PID.TID 0000.0001) fluidIsWater =  /* fluid major constituent is Water */
(PID.TID 0000.0001)                   T
(PID.TID 0000.0001)     ;
(PID.TID 0000.0001) usingPCoords =  /* use p (or p*) vertical coordinate */
(PID.TID 0000.0001)                   T
(PID.TID 0000.0001)     ;
(PID.TID 0000.0001) usingZCoords =  /* use z (or z*) vertical coordinate */
(PID.TID 0000.0001)                   F
(PID.TID 0000.0001)     ;
(PID.TID 0000.0001) tRef =   /* Reference temperature profile ( oC or K ) */
(PID.TID 0000.0001)    15 @  2.000000000000000E+01              /* K =  1: 15 */
(PID.TID 0000.0001)     ;
(PID.TID 0000.0001) sRef =   /* Reference salinity profile ( psu ) */
(PID.TID 0000.0001)    15 @  3.500000000000000E+01              /* K =  1: 15 */
(PID.TID 0000.0001)     ;
(PID.TID 0000.0001) viscAh  =   /* Lateral eddy viscosity ( m^2/s ) */
(PID.TID 0000.0001)                 3.000000000000000E+05
(PID.TID 0000.0001)     ;
(PID.TID 0000.0001) viscAhMax = /* Maximum lateral eddy viscosity ( m^2/s ) */
(PID.TID 0000.0001)                 1.000000000000000E+21
(PID.TID 0000.0001)     ;
(PID.TID 0000.0001) viscAhGrid = /* Grid dependent lateral eddy viscosity ( non-dim. ) */
(PID.TID 0000.0001)                 0.000000000000000E+00
(PID.TID 0000.0001)     ;
(PID.TID 0000.0001) useFullLeith = /* Use Full Form of Leith Viscosity on/off flag*/
(PID.TID 0000.0001)                   F
(PID.TID 0000.0001)     ;
(PID.TID 0000.0001) useStrainTensionVisc= /* Use StrainTension Form of Viscous Operator flag*/
(PID.TID 0000.0001)                   F
(PID.TID 0000.0001)     ;
(PID.TID 0000.0001) useAreaViscLength = /* Use area for visc length instead of geom. mean*/
(PID.TID 0000.0001)                   F
(PID.TID 0000.0001)     ;
(PID.TID 0000.0001) viscC2leith = /* Leith harmonic visc. factor (on grad(vort),non-dim.) */
(PID.TID 0000.0001)                 0.000000000000000E+00
(PID.TID 0000.0001)     ;
(PID.TID 0000.0001) viscC2leithD = /* Leith harmonic viscosity factor (on grad(div),non-dim.)*/
(PID.TID 0000.0001)                 0.000000000000000E+00
(PID.TID 0000.0001)     ;
(PID.TID 0000.0001) viscC2smag = /* Smagorinsky harmonic viscosity factor (non-dim.) */
(PID.TID 0000.0001)                 0.000000000000000E+00
(PID.TID 0000.0001)     ;
(PID.TID 0000.0001) viscA4  =   /* Lateral biharmonic viscosity ( m^4/s ) */
(PID.TID 0000.0001)                 0.000000000000000E+00
(PID.TID 0000.0001)     ;
(PID.TID 0000.0001) viscA4Max = /* Maximum biharmonic viscosity ( m^2/s ) */
(PID.TID 0000.0001)                 1.000000000000000E+21
(PID.TID 0000.0001)     ;
(PID.TID 0000.0001) viscA4Grid = /* Grid dependent biharmonic viscosity ( non-dim. ) */
(PID.TID 0000.0001)                 0.000000000000000E+00
(PID.TID 0000.0001)     ;
(PID.TID 0000.0001) viscC4leith = /* Leith biharm viscosity factor (on grad(vort), non-dim.)*/
(PID.TID 0000.0001)                 0.000000000000000E+00
(PID.TID 0000.0001)     ;
(PID.TID 0000.0001) viscC4leithD = /* Leith biharm viscosity factor (on grad(div), non-dim.) */
(PID.TID 0000.0001)                 0.000000000000000E+00
(PID.TID 0000.0001)     ;
(PID.TID 0000.0001) viscC4Smag = /* Smagorinsky biharm viscosity factor (non-dim) */
(PID.TID 0000.0001)                 0.000000000000000E+00
(PID.TID 0000.0001)     ;
(PID.TID 0000.0001) no_slip_sides =  /* Viscous BCs: No-slip sides */
(PID.TID 0000.0001)                   T
(PID.TID 0000.0001)     ;
(PID.TID 0000.0001) sideDragFactor = /* side-drag scaling factor (non-dim) */
(PID.TID 0000.0001)                 2.000000000000000E+00
(PID.TID 0000.0001)     ;
(PID.TID 0000.0001) viscArNr = /* vertical profile of vertical viscosity (Pa^2/s )*/
(PID.TID 0000.0001)    15 @  1.721611620915750E+05              /* K =  1: 15 */
(PID.TID 0000.0001)     ;
(PID.TID 0000.0001) no_slip_bottom =  /* Viscous BCs: No-slip bottom */
(PID.TID 0000.0001)                   F
(PID.TID 0000.0001)     ;
(PID.TID 0000.0001) bottomDragLinear = /* linear bottom-drag coefficient ( m/s ) */
(PID.TID 0000.0001)                 0.000000000000000E+00
(PID.TID 0000.0001)     ;
(PID.TID 0000.0001) bottomDragQuadratic = /* quadratic bottom-drag coefficient (-) */
(PID.TID 0000.0001)                 0.000000000000000E+00
(PID.TID 0000.0001)     ;
(PID.TID 0000.0001) diffKhT =   /* Laplacian diffusion of heat laterally ( m^2/s ) */
(PID.TID 0000.0001)                 1.000000000000000E+03
(PID.TID 0000.0001)     ;
(PID.TID 0000.0001) diffK4T =   /* Biharmonic diffusion of heat laterally ( m^4/s ) */
(PID.TID 0000.0001)                 0.000000000000000E+00
(PID.TID 0000.0001)     ;
(PID.TID 0000.0001) diffKhS =   /* Laplacian diffusion of salt laterally ( m^2/s ) */
(PID.TID 0000.0001)                 1.000000000000000E+03
(PID.TID 0000.0001)     ;
(PID.TID 0000.0001) diffK4S =   /* Biharmonic diffusion of salt laterally ( m^4/s ) */
(PID.TID 0000.0001)                 0.000000000000000E+00
(PID.TID 0000.0001)     ;
(PID.TID 0000.0001) diffKrNrT = /* vertical profile of vertical diffusion of Temp (Pa^2/s )*/
(PID.TID 0000.0001)    15 @  5.154525811125000E+03              /* K =  1: 15 */
(PID.TID 0000.0001)     ;
(PID.TID 0000.0001) diffKrNrS = /* vertical profile of vertical diffusion of Salt (Pa^2/s )*/
(PID.TID 0000.0001)    15 @  5.154525811125000E+03              /* K =  1: 15 */
(PID.TID 0000.0001)     ;
(PID.TID 0000.0001) diffKrBL79surf = /* Surface diffusion for Bryan and Lewis 79 ( m^2/s ) */
(PID.TID 0000.0001)                 0.000000000000000E+00
(PID.TID 0000.0001)     ;
(PID.TID 0000.0001) diffKrBL79deep = /* Deep diffusion for Bryan and Lewis 1979 ( m^2/s ) */
(PID.TID 0000.0001)                 0.000000000000000E+00
(PID.TID 0000.0001)     ;
(PID.TID 0000.0001) diffKrBL79scl = /* Depth scale for Bryan and Lewis 1979 ( m ) */
(PID.TID 0000.0001)                 2.000000000000000E+02
(PID.TID 0000.0001)     ;
(PID.TID 0000.0001) diffKrBL79Ho = /* Turning depth for Bryan and Lewis 1979 ( m ) */
(PID.TID 0000.0001)                -2.000000000000000E+03
(PID.TID 0000.0001)     ;
(PID.TID 0000.0001) ivdc_kappa = /* Implicit Vertical Diffusivity for Convection (Pa^2/s) */
(PID.TID 0000.0001)                 1.030905162225000E+09
(PID.TID 0000.0001)     ;
(PID.TID 0000.0001) hMixCriteria=  /* Criteria for mixed-layer diagnostic */
(PID.TID 0000.0001)                -8.000000000000000E-01
(PID.TID 0000.0001)     ;
(PID.TID 0000.0001) dRhoSmall =  /* Parameter for mixed-layer diagnostic */
(PID.TID 0000.0001)                 1.000000000000000E-06
(PID.TID 0000.0001)     ;
(PID.TID 0000.0001) hMixSmooth=  /* Smoothing parameter for mixed-layer diagnostic */
(PID.TID 0000.0001)                 0.000000000000000E+00
(PID.TID 0000.0001)     ;
(PID.TID 0000.0001) eosType =  /* Type of Equation of State */
(PID.TID 0000.0001)               'JMD95P'
(PID.TID 0000.0001)     ;
(PID.TID 0000.0001) tAlpha =   /* Linear EOS thermal expansion coefficient ( 1/oC ) */
(PID.TID 0000.0001)                 1.234567000000000E+05
(PID.TID 0000.0001)     ;
(PID.TID 0000.0001) sBeta =   /* Linear EOS haline contraction coefficient ( 1/psu ) */
(PID.TID 0000.0001)                 1.234567000000000E+05
(PID.TID 0000.0001)     ;
(PID.TID 0000.0001) rhonil =   /* Reference density ( kg/m^3 ) */
(PID.TID 0000.0001)                 1.035000000000000E+03
(PID.TID 0000.0001)     ;
(PID.TID 0000.0001) rhoConst =   /* Reference density ( kg/m^3 ) */
(PID.TID 0000.0001)                 1.035000000000000E+03
(PID.TID 0000.0001)     ;
(PID.TID 0000.0001) rhoFacC = /* normalized Reference density @ cell-Center (-) */
(PID.TID 0000.0001)    15 @  1.000000000000000E+00              /* K =  1: 15 */
(PID.TID 0000.0001)     ;
(PID.TID 0000.0001) rhoFacF = /* normalized Reference density @ W-Interface (-) */
(PID.TID 0000.0001)    16 @  1.000000000000000E+00              /* K =  1: 16 */
(PID.TID 0000.0001)     ;
(PID.TID 0000.0001) rhoConstFresh =   /* Reference density ( kg/m^3 ) */
(PID.TID 0000.0001)                 9.998000000000000E+02
(PID.TID 0000.0001)     ;
(PID.TID 0000.0001) gravity =   /* Gravitational acceleration ( m/s^2 ) */
(PID.TID 0000.0001)                 9.810000000000000E+00
(PID.TID 0000.0001)     ;
(PID.TID 0000.0001) gBaro =   /* Barotropic gravity ( m/s^2 ) */
(PID.TID 0000.0001)                 9.810000000000000E+00
(PID.TID 0000.0001)     ;
(PID.TID 0000.0001) rotationPeriod =   /* Rotation Period ( s ) */
(PID.TID 0000.0001)                 8.640000000000000E+04
(PID.TID 0000.0001)     ;
(PID.TID 0000.0001) omega =   /* Angular velocity ( rad/s ) */
(PID.TID 0000.0001)                 7.272205216643040E-05
(PID.TID 0000.0001)     ;
(PID.TID 0000.0001) f0 =   /* Reference coriolis parameter ( 1/s ) */
(PID.TID 0000.0001)                 1.000000000000000E-04
(PID.TID 0000.0001)     ;
(PID.TID 0000.0001) beta =   /* Beta ( 1/(m.s) ) */
(PID.TID 0000.0001)                 9.999999999999999E-12
(PID.TID 0000.0001)     ;
(PID.TID 0000.0001) fPrime =   /* Second coriolis parameter ( 1/s ) */
(PID.TID 0000.0001)                 0.000000000000000E+00
(PID.TID 0000.0001)     ;
(PID.TID 0000.0001) rigidLid =   /* Rigid lid on/off flag */
(PID.TID 0000.0001)                   F
(PID.TID 0000.0001)     ;
(PID.TID 0000.0001) implicitFreeSurface =   /* Implicit free surface on/off flag */
(PID.TID 0000.0001)                   T
(PID.TID 0000.0001)     ;
(PID.TID 0000.0001) freeSurfFac =   /* Implicit free surface factor */
(PID.TID 0000.0001)                 1.000000000000000E+00
(PID.TID 0000.0001)     ;
(PID.TID 0000.0001) implicSurfPress =  /* Surface Pressure implicit factor (0-1)*/
(PID.TID 0000.0001)                 1.000000000000000E+00
(PID.TID 0000.0001)     ;
(PID.TID 0000.0001) implicDiv2Dflow =  /* Barot. Flow Div. implicit factor (0-1)*/
(PID.TID 0000.0001)                 1.000000000000000E+00
(PID.TID 0000.0001)     ;
(PID.TID 0000.0001) exactConserv =  /* Exact Volume Conservation on/off flag*/
(PID.TID 0000.0001)                   T
(PID.TID 0000.0001)     ;
(PID.TID 0000.0001) linFSConserveTr = /* Tracer correction for Lin Free Surface on/off flag*/
(PID.TID 0000.0001)                   F
(PID.TID 0000.0001)     ;
(PID.TID 0000.0001) uniformLin_PhiSurf = /* use uniform Bo_surf on/off flag*/
(PID.TID 0000.0001)                   T
(PID.TID 0000.0001)     ;
(PID.TID 0000.0001) hFacMin =   /* minimum partial cell factor (hFac) */
(PID.TID 0000.0001)                 1.000000000000000E+00
(PID.TID 0000.0001)     ;
(PID.TID 0000.0001) hFacMinDr = /* minimum partial cell thickness (Pa) */
(PID.TID 0000.0001)                 1.000000000000000E+00
(PID.TID 0000.0001)     ;
(PID.TID 0000.0001) nonlinFreeSurf = /* Non-linear Free Surf. options (-1,0,1,2,3)*/
(PID.TID 0000.0001)                       4
(PID.TID 0000.0001)      -1,0= Off ; 1,2,3= On, 2=+rescale gU,gV, 3=+update cg2d solv.
(PID.TID 0000.0001)     ;
(PID.TID 0000.0001) hFacInf =   /* lower threshold for hFac (nonlinFreeSurf only)*/
(PID.TID 0000.0001)                 2.000000000000000E-01
(PID.TID 0000.0001)     ;
(PID.TID 0000.0001) hFacSup =   /* upper threshold for hFac (nonlinFreeSurf only)*/
(PID.TID 0000.0001)                 2.000000000000000E+00
(PID.TID 0000.0001)     ;
(PID.TID 0000.0001) select_rStar = /* r* Vertical coord. options (=0 r coord.; >0 uses r*)*/
(PID.TID 0000.0001)                       0
(PID.TID 0000.0001)     ;
(PID.TID 0000.0001) selectAddFluid = /* option for mass source/sink of fluid (=0: off) */
(PID.TID 0000.0001)                       0
(PID.TID 0000.0001)     ;
(PID.TID 0000.0001) useRealFreshWaterFlux = /* Real Fresh Water Flux on/off flag*/
(PID.TID 0000.0001)                   F
(PID.TID 0000.0001)     ;
(PID.TID 0000.0001) temp_EvPrRn = /* Temp. of Evap/Prec/R (UNSET=use local T)(oC)*/
(PID.TID 0000.0001)                 1.234567000000000E+05
(PID.TID 0000.0001)     ;
(PID.TID 0000.0001) salt_EvPrRn = /* Salin. of Evap/Prec/R (UNSET=use local S)(psu)*/
(PID.TID 0000.0001)                 0.000000000000000E+00
(PID.TID 0000.0001)     ;
(PID.TID 0000.0001) temp_addMass = /* Temp. of addMass array (UNSET=use local T)(oC)*/
(PID.TID 0000.0001)                 1.234567000000000E+05
(PID.TID 0000.0001)     ;
(PID.TID 0000.0001) salt_addMass = /* Salin. of addMass array (UNSET=use local S)(psu)*/
(PID.TID 0000.0001)                 0.000000000000000E+00
(PID.TID 0000.0001)     ;
(PID.TID 0000.0001) convertFW2Salt = /* convert F.W. Flux to Salt Flux (-1=use local S)(psu)*/
(PID.TID 0000.0001)                 3.500000000000000E+01
(PID.TID 0000.0001)     ;
(PID.TID 0000.0001) use3Dsolver = /* use 3-D pressure solver on/off flag */
(PID.TID 0000.0001)                   F
(PID.TID 0000.0001)     ;
(PID.TID 0000.0001) nonHydrostatic =  /* Non-Hydrostatic on/off flag */
(PID.TID 0000.0001)                   F
(PID.TID 0000.0001)     ;
(PID.TID 0000.0001) nh_Am2 = /* Non-Hydrostatic terms scaling factor */
(PID.TID 0000.0001)                 1.000000000000000E+00
(PID.TID 0000.0001)     ;
(PID.TID 0000.0001) implicitNHPress = /* Non-Hyd Pressure implicit factor (0-1)*/
(PID.TID 0000.0001)                 1.000000000000000E+00
(PID.TID 0000.0001)     ;
(PID.TID 0000.0001) selectNHfreeSurf = /* Non-Hyd (free-)Surface option */
(PID.TID 0000.0001)                       0
(PID.TID 0000.0001)     ;
(PID.TID 0000.0001) quasiHydrostatic = /* Quasi-Hydrostatic on/off flag */
(PID.TID 0000.0001)                   F
(PID.TID 0000.0001)     ;
(PID.TID 0000.0001) momStepping =  /* Momentum equation on/off flag */
(PID.TID 0000.0001)                   T
(PID.TID 0000.0001)     ;
(PID.TID 0000.0001) vectorInvariantMomentum= /* Vector-Invariant Momentum on/off */
(PID.TID 0000.0001)                   F
(PID.TID 0000.0001)     ;
(PID.TID 0000.0001) momAdvection =  /* Momentum advection on/off flag */
(PID.TID 0000.0001)                   T
(PID.TID 0000.0001)     ;
(PID.TID 0000.0001) momViscosity =  /* Momentum viscosity on/off flag */
(PID.TID 0000.0001)                   T
(PID.TID 0000.0001)     ;
(PID.TID 0000.0001) momImplVertAdv= /* Momentum implicit vert. advection on/off*/
(PID.TID 0000.0001)                   F
(PID.TID 0000.0001)     ;
(PID.TID 0000.0001) implicitViscosity = /* Implicit viscosity on/off flag */
(PID.TID 0000.0001)                   F
(PID.TID 0000.0001)     ;
(PID.TID 0000.0001) metricTerms =  /* metric-Terms on/off flag */
(PID.TID 0000.0001)                   T
(PID.TID 0000.0001)     ;
(PID.TID 0000.0001) useNHMTerms = /* Non-Hydrostatic Metric-Terms on/off */
(PID.TID 0000.0001)                   T
(PID.TID 0000.0001)     ;
(PID.TID 0000.0001) selectCoriMap = /* Coriolis Map options (0,1,2,3)*/
(PID.TID 0000.0001)                       2
(PID.TID 0000.0001)     0= f-Plane ; 1= Beta-Plane ; 2= Spherical ; 3= read from file
(PID.TID 0000.0001)     ;
(PID.TID 0000.0001) use3dCoriolis = /* 3-D Coriolis on/off flag */
(PID.TID 0000.0001)                   F
(PID.TID 0000.0001)     ;
(PID.TID 0000.0001) useCoriolis =  /* Coriolis on/off flag */
(PID.TID 0000.0001)                   T
(PID.TID 0000.0001)     ;
(PID.TID 0000.0001) useCDscheme =  /* CD scheme on/off flag */
(PID.TID 0000.0001)                   F
(PID.TID 0000.0001)     ;
(PID.TID 0000.0001) useJamartWetPoints= /* Coriolis WetPoints method flag */
(PID.TID 0000.0001)                   F
(PID.TID 0000.0001)     ;
(PID.TID 0000.0001) useJamartMomAdv= /* V.I. Non-linear terms Jamart flag */
(PID.TID 0000.0001)                   F
(PID.TID 0000.0001)     ;
(PID.TID 0000.0001) useAbsVorticity= /* Work with f+zeta in Coriolis */
(PID.TID 0000.0001)                   F
(PID.TID 0000.0001)     ;
(PID.TID 0000.0001) selectVortScheme= /* Scheme selector for Vorticity-Term */
(PID.TID 0000.0001)               123456789
(PID.TID 0000.0001)    = 0 : enstrophy (Shallow-Water Eq.) conserving scheme by Sadourny, JAS 75
(PID.TID 0000.0001)    = 1 : same as 0 with modified hFac
(PID.TID 0000.0001)    = 2 : energy conserving scheme (used by Sadourny in JAS 75 paper)
(PID.TID 0000.0001)    = 3 : energy (general) and enstrophy (2D, nonDiv.) conserving scheme
(PID.TID 0000.0001)          from Sadourny (Burridge & Haseler, ECMWF Rep.4, 1977)
(PID.TID 0000.0001)     ;
(PID.TID 0000.0001) upwindVorticity= /* Upwind bias vorticity flag */
(PID.TID 0000.0001)                   F
(PID.TID 0000.0001)     ;
(PID.TID 0000.0001) highOrderVorticity= /* High order interp. of vort. flag */
(PID.TID 0000.0001)                   F
(PID.TID 0000.0001)     ;
(PID.TID 0000.0001) upwindShear= /* Upwind vertical Shear advection flag */
(PID.TID 0000.0001)                   F
(PID.TID 0000.0001)     ;
(PID.TID 0000.0001) selectKEscheme= /* Kinetic Energy scheme selector */
(PID.TID 0000.0001)                       0
(PID.TID 0000.0001)     ;
(PID.TID 0000.0001) momForcing =  /* Momentum forcing on/off flag */
(PID.TID 0000.0001)                   T
(PID.TID 0000.0001)     ;
(PID.TID 0000.0001) momPressureForcing =  /* Momentum pressure term on/off flag */
(PID.TID 0000.0001)                   T
(PID.TID 0000.0001)     ;
(PID.TID 0000.0001) implicitIntGravWave= /* Implicit Internal Gravity Wave flag */
(PID.TID 0000.0001)                   F
(PID.TID 0000.0001)     ;
(PID.TID 0000.0001) staggerTimeStep =   /* Stagger time stepping on/off flag */
(PID.TID 0000.0001)                   F
(PID.TID 0000.0001)     ;
(PID.TID 0000.0001) multiDimAdvection =   /* enable/disable Multi-Dim Advection */
(PID.TID 0000.0001)                   T
(PID.TID 0000.0001)     ;
(PID.TID 0000.0001) useMultiDimAdvec =   /* Multi-Dim Advection is/is-not used */
(PID.TID 0000.0001)                   F
(PID.TID 0000.0001)     ;
(PID.TID 0000.0001) implicitDiffusion = /* Implicit Diffusion on/off flag */
(PID.TID 0000.0001)                   T
(PID.TID 0000.0001)     ;
(PID.TID 0000.0001) tempStepping =  /* Temperature equation on/off flag */
(PID.TID 0000.0001)                   T
(PID.TID 0000.0001)     ;
(PID.TID 0000.0001) tempAdvection=  /* Temperature advection on/off flag */
(PID.TID 0000.0001)                   T
(PID.TID 0000.0001)     ;
(PID.TID 0000.0001) tempImplVertAdv = /* Temp. implicit vert. advection on/off */
(PID.TID 0000.0001)                   F
(PID.TID 0000.0001)     ;
(PID.TID 0000.0001) tempForcing  =  /* Temperature forcing on/off flag */
(PID.TID 0000.0001)                   T
(PID.TID 0000.0001)     ;
(PID.TID 0000.0001) tempIsActiveTr = /* Temp. is a dynamically Active Tracer */
(PID.TID 0000.0001)                   T
(PID.TID 0000.0001)     ;
(PID.TID 0000.0001) saltStepping =  /* Salinity equation on/off flag */
(PID.TID 0000.0001)                   T
(PID.TID 0000.0001)     ;
(PID.TID 0000.0001) saltAdvection=  /* Salinity advection on/off flag */
(PID.TID 0000.0001)                   T
(PID.TID 0000.0001)     ;
(PID.TID 0000.0001) saltImplVertAdv = /* Sali. implicit vert. advection on/off */
(PID.TID 0000.0001)                   F
(PID.TID 0000.0001)     ;
(PID.TID 0000.0001) saltForcing  =  /* Salinity forcing on/off flag */
(PID.TID 0000.0001)                   T
(PID.TID 0000.0001)     ;
(PID.TID 0000.0001) saltIsActiveTr = /* Salt  is a dynamically Active Tracer */
(PID.TID 0000.0001)                   T
(PID.TID 0000.0001)     ;
(PID.TID 0000.0001)  readBinaryPrec = /* Precision used for reading binary files */
(PID.TID 0000.0001)                      64
(PID.TID 0000.0001)     ;
(PID.TID 0000.0001) writeBinaryPrec = /* Precision used for writing binary files */
(PID.TID 0000.0001)                      64
(PID.TID 0000.0001)     ;
(PID.TID 0000.0001)  globalFiles = /* write "global" (=not per tile) files */
(PID.TID 0000.0001)                   F
(PID.TID 0000.0001)     ;
(PID.TID 0000.0001)  useSingleCpuIO = /* only master MPI process does I/O */
(PID.TID 0000.0001)                   F
(PID.TID 0000.0001)     ;
(PID.TID 0000.0001)  debugMode  =  /* Debug Mode on/off flag */
(PID.TID 0000.0001)                   F
(PID.TID 0000.0001)     ;
(PID.TID 0000.0001)    debLevA  =  /* 1rst level of debugging */
(PID.TID 0000.0001)                       1
(PID.TID 0000.0001)     ;
(PID.TID 0000.0001)    debLevB  =  /* 2nd  level of debugging */
(PID.TID 0000.0001)                       2
(PID.TID 0000.0001)     ;
(PID.TID 0000.0001)  debugLevel =  /* select debugging level */
(PID.TID 0000.0001)                       1
(PID.TID 0000.0001)     ;
(PID.TID 0000.0001) //
(PID.TID 0000.0001) // Elliptic solver(s) paramters ( PARM02 in namelist )
(PID.TID 0000.0001) //
(PID.TID 0000.0001) cg2dMaxIters =   /* Upper limit on 2d con. grad iterations  */
(PID.TID 0000.0001)                     200
(PID.TID 0000.0001)     ;
(PID.TID 0000.0001) cg2dChkResFreq =   /* 2d con. grad convergence test frequency */
(PID.TID 0000.0001)                       1
(PID.TID 0000.0001)     ;
(PID.TID 0000.0001) cg2dTargetResidual =   /* 2d con. grad target residual  */
(PID.TID 0000.0001)                 1.000000000000000E-09
(PID.TID 0000.0001)     ;
(PID.TID 0000.0001) cg2dTargetResWunit =   /* CG2d target residual [W units] */
(PID.TID 0000.0001)                -1.000000000000000E+00
(PID.TID 0000.0001)     ;
(PID.TID 0000.0001) cg2dPreCondFreq =   /* Freq. for updating cg2d preconditioner */
(PID.TID 0000.0001)                       1
(PID.TID 0000.0001)     ;
(PID.TID 0000.0001) useSRCGSolver =  /* use single reduction CG solver(s) */
(PID.TID 0000.0001)                   F
(PID.TID 0000.0001)     ;
(PID.TID 0000.0001) //
(PID.TID 0000.0001) // Time stepping paramters ( PARM03 in namelist )
(PID.TID 0000.0001) //
(PID.TID 0000.0001) deltaTmom =   /* Momentum equation timestep ( s ) */
(PID.TID 0000.0001)                 1.200000000000000E+03
(PID.TID 0000.0001)     ;
(PID.TID 0000.0001) deltaTfreesurf = /* FreeSurface equation timestep ( s ) */
(PID.TID 0000.0001)                 1.728000000000000E+05
(PID.TID 0000.0001)     ;
(PID.TID 0000.0001) dTtracerLev =  /* Tracer equation timestep ( s ) */
(PID.TID 0000.0001)    15 @  1.728000000000000E+05              /* K =  1: 15 */
(PID.TID 0000.0001)     ;
(PID.TID 0000.0001) deltaTClock  =   /* Model clock timestep ( s ) */
(PID.TID 0000.0001)                 1.728000000000000E+05
(PID.TID 0000.0001)     ;
(PID.TID 0000.0001) cAdjFreq =   /* Convective adjustment interval ( s ) */
(PID.TID 0000.0001)                 0.000000000000000E+00
(PID.TID 0000.0001)     ;
(PID.TID 0000.0001) momForcingOutAB = /* =1: take Momentum Forcing out of Adams-Bash. stepping */
(PID.TID 0000.0001)                       0
(PID.TID 0000.0001)     ;
(PID.TID 0000.0001) tracForcingOutAB = /* =1: take T,S,pTr Forcing out of Adams-Bash. stepping */
(PID.TID 0000.0001)                       0
(PID.TID 0000.0001)     ;
(PID.TID 0000.0001) momDissip_In_AB = /* put Dissipation Tendency in Adams-Bash. stepping */
(PID.TID 0000.0001)                   T
(PID.TID 0000.0001)     ;
(PID.TID 0000.0001) doAB_onGtGs = /* apply AB on Tendencies (rather than on T,S)*/
(PID.TID 0000.0001)                   T
(PID.TID 0000.0001)     ;
(PID.TID 0000.0001) abEps =   /* Adams-Bashforth-2 stabilizing weight */
(PID.TID 0000.0001)                 1.000000000000000E-01
(PID.TID 0000.0001)     ;
(PID.TID 0000.0001) pickupStrictlyMatch= /* stop if pickup do not strictly match */
(PID.TID 0000.0001)                   T
(PID.TID 0000.0001)     ;
(PID.TID 0000.0001) nIter0   =   /* Run starting timestep number */
(PID.TID 0000.0001)                       0
(PID.TID 0000.0001)     ;
(PID.TID 0000.0001) nTimeSteps = /* Number of timesteps */
(PID.TID 0000.0001)                      20
(PID.TID 0000.0001)     ;
(PID.TID 0000.0001) nEndIter =   /* Run ending timestep number */
(PID.TID 0000.0001)                      20
(PID.TID 0000.0001)     ;
(PID.TID 0000.0001) baseTime =   /* Model base time ( s ) */
(PID.TID 0000.0001)                 0.000000000000000E+00
(PID.TID 0000.0001)     ;
(PID.TID 0000.0001) startTime =  /* Run start time ( s ) */
(PID.TID 0000.0001)                 0.000000000000000E+00
(PID.TID 0000.0001)     ;
(PID.TID 0000.0001) endTime  =   /* Integration ending time ( s ) */
(PID.TID 0000.0001)                 3.456000000000000E+06
(PID.TID 0000.0001)     ;
(PID.TID 0000.0001) pChkPtFreq = /* Permanent restart/pickup file interval ( s ) */
(PID.TID 0000.0001)                 3.110400000000000E+09
(PID.TID 0000.0001)     ;
(PID.TID 0000.0001) chkPtFreq  = /* Rolling restart/pickup file interval ( s ) */
(PID.TID 0000.0001)                 0.000000000000000E+00
(PID.TID 0000.0001)     ;
(PID.TID 0000.0001) pickup_write_mdsio =   /* Model IO flag. */
(PID.TID 0000.0001)                   T
(PID.TID 0000.0001)     ;
(PID.TID 0000.0001) pickup_read_mdsio =   /* Model IO flag. */
(PID.TID 0000.0001)                   T
(PID.TID 0000.0001)     ;
(PID.TID 0000.0001) pickup_write_immed =   /* Model IO flag. */
(PID.TID 0000.0001)                   F
(PID.TID 0000.0001)     ;
(PID.TID 0000.0001) writePickupAtEnd =   /* Model IO flag. */
(PID.TID 0000.0001)                   T
(PID.TID 0000.0001)     ;
(PID.TID 0000.0001) dumpFreq =   /* Model state write out interval ( s ). */
(PID.TID 0000.0001)                 3.110400000000000E+09
(PID.TID 0000.0001)     ;
(PID.TID 0000.0001) dumpInitAndLast= /* write out Initial & Last iter. model state */
(PID.TID 0000.0001)                   T
(PID.TID 0000.0001)     ;
(PID.TID 0000.0001) snapshot_mdsio =   /* Model IO flag. */
(PID.TID 0000.0001)                   T
(PID.TID 0000.0001)     ;
(PID.TID 0000.0001) monitorFreq =   /* Monitor output interval ( s ). */
(PID.TID 0000.0001)                 1.000000000000000E+00
(PID.TID 0000.0001)     ;
(PID.TID 0000.0001) monitorSelect = /* select group of variables to monitor */
(PID.TID 0000.0001)                       3
(PID.TID 0000.0001)     ;
(PID.TID 0000.0001) monitor_stdio =   /* Model IO flag. */
(PID.TID 0000.0001)                   T
(PID.TID 0000.0001)     ;
(PID.TID 0000.0001) externForcingPeriod =   /* forcing period (s) */
(PID.TID 0000.0001)                 2.592000000000000E+06
(PID.TID 0000.0001)     ;
(PID.TID 0000.0001) externForcingCycle =   /* period of the cyle (s). */
(PID.TID 0000.0001)                 3.110400000000000E+07
(PID.TID 0000.0001)     ;
(PID.TID 0000.0001) tauThetaClimRelax =   /* relaxation time scale (s) */
(PID.TID 0000.0001)                 5.184000000000000E+06
(PID.TID 0000.0001)     ;
(PID.TID 0000.0001) tauSaltClimRelax =   /* relaxation time scale (s) */
(PID.TID 0000.0001)                 0.000000000000000E+00
(PID.TID 0000.0001)     ;
(PID.TID 0000.0001) latBandClimRelax =   /* max. Lat. where relaxation */
(PID.TID 0000.0001)                 1.800000000000000E+02
(PID.TID 0000.0001)     ;
(PID.TID 0000.0001) //
(PID.TID 0000.0001) // Gridding paramters ( PARM04 in namelist )
(PID.TID 0000.0001) //
(PID.TID 0000.0001) usingCartesianGrid = /* Cartesian coordinates flag ( True/False ) */
(PID.TID 0000.0001)                   F
(PID.TID 0000.0001)     ;
(PID.TID 0000.0001) usingCylindricalGrid = /* Cylindrical coordinates flag ( True/False ) */
(PID.TID 0000.0001)                   F
(PID.TID 0000.0001)     ;
(PID.TID 0000.0001) usingSphericalPolarGrid = /* Spherical coordinates flag ( True/False ) */
(PID.TID 0000.0001)                   T
(PID.TID 0000.0001)     ;
(PID.TID 0000.0001) usingCurvilinearGrid = /* Curvilinear coordinates flag ( True/False ) */
(PID.TID 0000.0001)                   F
(PID.TID 0000.0001)     ;
(PID.TID 0000.0001) selectSigmaCoord = /* Hybrid-Sigma Vert. Coordinate option */
(PID.TID 0000.0001)                       0
(PID.TID 0000.0001)     ;
(PID.TID 0000.0001) Ro_SeaLevel = /* r(1) ( units of r == Pa ) */
(PID.TID 0000.0001)                 5.302312256608400E+07
(PID.TID 0000.0001)     ;
(PID.TID 0000.0001) rSigmaBnd = /* r/sigma transition ( units of r == Pa ) */
(PID.TID 0000.0001)                 1.234567000000000E+05
(PID.TID 0000.0001)     ;
(PID.TID 0000.0001) rkSign =   /* index orientation relative to vertical coordinate */
(PID.TID 0000.0001)                -1.000000000000000E+00
(PID.TID 0000.0001)     ;
(PID.TID 0000.0001) gravitySign = /* gravity orientation relative to vertical coordinate */
(PID.TID 0000.0001)                 1.000000000000000E+00
(PID.TID 0000.0001)     ;
(PID.TID 0000.0001) mass2rUnit = /* convert mass per unit area [kg/m2] to r-units [Pa] */
(PID.TID 0000.0001)                 9.810000000000000E+00
(PID.TID 0000.0001)     ;
(PID.TID 0000.0001) rUnit2mass = /* convert r-units [Pa] to mass per unit area [kg/m2] */
(PID.TID 0000.0001)                 1.019367991845056E-01
(PID.TID 0000.0001)     ;
(PID.TID 0000.0001) drC =   /* C spacing ( units of r ) */
(PID.TID 0000.0001)                 3.551650360010500E+06,      /* K =  1 */
(PID.TID 0000.0001)                 6.836924580405500E+06,      /* K =  2 */
(PID.TID 0000.0001)                 6.306109225519501E+06,      /* K =  3 */
(PID.TID 0000.0001)                 5.779053338153000E+06,      /* K =  4 */
(PID.TID 0000.0001)                 5.255519350233500E+06,      /* K =  5 */
(PID.TID 0000.0001)                 4.735252734850001E+06,      /* K =  6 */
(PID.TID 0000.0001)                 4.217983340545500E+06,      /* K =  7 */
(PID.TID 0000.0001)                 3.703426779226000E+06,      /* K =  8 */
(PID.TID 0000.0001)                 3.191285859157500E+06,      /* K =  9 */
(PID.TID 0000.0001)                 2.681252055355000E+06,      /* K = 10 */
(PID.TID 0000.0001)                 2.173007010517000E+06,      /* K = 11 */
(PID.TID 0000.0001)                 1.666224060479000E+06,      /* K = 12 */
(PID.TID 0000.0001)                 1.211001777568000E+06,      /* K = 13 */
(PID.TID 0000.0001)                 8.573828878235000E+05,      /* K = 14 */
(PID.TID 0000.0001)                 6.050043594899999E+05       /* K = 15 */
(PID.TID 0000.0001)     ;
(PID.TID 0000.0001) drF =   /* W spacing ( units of r ) */
(PID.TID 0000.0001)                 7.103300720021000E+06,      /* K =  1 */
(PID.TID 0000.0001)                 6.570548440790000E+06,      /* K =  2 */
(PID.TID 0000.0001)                 6.041670010249000E+06,      /* K =  3 */
(PID.TID 0000.0001)                 5.516436666057000E+06,      /* K =  4 */
(PID.TID 0000.0001)                 4.994602034410000E+06,      /* K =  5 */
(PID.TID 0000.0001)                 4.475903435290000E+06,      /* K =  6 */
(PID.TID 0000.0001)                 3.960063245801000E+06,      /* K =  7 */
(PID.TID 0000.0001)                 3.446790312651000E+06,      /* K =  8 */
(PID.TID 0000.0001)                 2.935781405664000E+06,      /* K =  9 */
(PID.TID 0000.0001)                 2.426722705046000E+06,      /* K = 10 */
(PID.TID 0000.0001)                 1.919291315988000E+06,      /* K = 11 */
(PID.TID 0000.0001)                 1.413156804970000E+06,      /* K = 12 */
(PID.TID 0000.0001)                 1.008846750166000E+06,      /* K = 13 */
(PID.TID 0000.0001)                 7.059190254810000E+05,      /* K = 14 */
(PID.TID 0000.0001)                 5.040896934990000E+05       /* K = 15 */
(PID.TID 0000.0001)     ;
(PID.TID 0000.0001) delX = /* U spacing ( m - cartesian, degrees - spherical ) */
(PID.TID 0000.0001)    90 @  4.000000000000000E+00              /* I =  1: 90 */
(PID.TID 0000.0001)     ;
(PID.TID 0000.0001) delY = /* V spacing ( m - cartesian, degrees - spherical ) */
(PID.TID 0000.0001)    40 @  4.000000000000000E+00              /* J =  1: 40 */
(PID.TID 0000.0001)     ;
(PID.TID 0000.0001) xgOrigin = /* X-axis origin of West  edge (cartesian: m, lat-lon: deg.) */
(PID.TID 0000.0001)                 0.000000000000000E+00
(PID.TID 0000.0001)     ;
(PID.TID 0000.0001) ygOrigin = /* Y-axis origin of South edge (cartesian: m, lat-lon: deg.) */
(PID.TID 0000.0001)                -8.000000000000000E+01
(PID.TID 0000.0001)     ;
(PID.TID 0000.0001) rSphere =  /* Radius ( ignored - cartesian, m - spherical ) */
(PID.TID 0000.0001)                 6.370000000000000E+06
(PID.TID 0000.0001)     ;
(PID.TID 0000.0001) deepAtmosphere = /* Deep/Shallow Atmosphere flag (True/False) */
(PID.TID 0000.0001)                   F
(PID.TID 0000.0001)     ;
(PID.TID 0000.0001) xC =  /* xC(:,1,:,1) : P-point X coord ( deg. or m if cartesian) */
(PID.TID 0000.0001)                 2.000000000000000E+00,      /* I =  1 */
(PID.TID 0000.0001)                 6.000000000000000E+00,      /* I =  2 */
(PID.TID 0000.0001)                 1.000000000000000E+01,      /* I =  3 */
(PID.TID 0000.0001)      . . .
(PID.TID 0000.0001)                 8.200000000000000E+01,      /* I = 21 */
(PID.TID 0000.0001)                 8.600000000000000E+01,      /* I = 22 */
(PID.TID 0000.0001)                 9.000000000000000E+01,      /* I = 23 */
(PID.TID 0000.0001)                 9.400000000000000E+01,      /* I = 24 */
(PID.TID 0000.0001)                 9.800000000000000E+01,      /* I = 25 */
(PID.TID 0000.0001)                 1.020000000000000E+02,      /* I = 26 */
(PID.TID 0000.0001)      . . .
(PID.TID 0000.0001)                 1.700000000000000E+02,      /* I = 43 */
(PID.TID 0000.0001)                 1.740000000000000E+02,      /* I = 44 */
(PID.TID 0000.0001)                 1.780000000000000E+02,      /* I = 45 */
(PID.TID 0000.0001)                 1.820000000000000E+02,      /* I = 46 */
(PID.TID 0000.0001)                 1.860000000000000E+02,      /* I = 47 */
(PID.TID 0000.0001)                 1.900000000000000E+02,      /* I = 48 */
(PID.TID 0000.0001)      . . .
(PID.TID 0000.0001)                 2.580000000000000E+02,      /* I = 65 */
(PID.TID 0000.0001)                 2.620000000000000E+02,      /* I = 66 */
(PID.TID 0000.0001)                 2.660000000000000E+02,      /* I = 67 */
(PID.TID 0000.0001)                 2.700000000000000E+02,      /* I = 68 */
(PID.TID 0000.0001)                 2.740000000000000E+02,      /* I = 69 */
(PID.TID 0000.0001)                 2.780000000000000E+02,      /* I = 70 */
(PID.TID 0000.0001)      . . .
(PID.TID 0000.0001)                 3.500000000000000E+02,      /* I = 88 */
(PID.TID 0000.0001)                 3.540000000000000E+02,      /* I = 89 */
(PID.TID 0000.0001)                 3.580000000000000E+02       /* I = 90 */
(PID.TID 0000.0001)     ;
(PID.TID 0000.0001) yC =  /* yC(1,:,1,:) : P-point Y coord ( deg. or m if cartesian) */
(PID.TID 0000.0001)                -7.800000000000000E+01,      /* J =  1 */
(PID.TID 0000.0001)                -7.400000000000000E+01,      /* J =  2 */
(PID.TID 0000.0001)                -7.000000000000000E+01,      /* J =  3 */
(PID.TID 0000.0001)                -6.600000000000000E+01,      /* J =  4 */
(PID.TID 0000.0001)                -6.200000000000000E+01,      /* J =  5 */
(PID.TID 0000.0001)                -5.800000000000000E+01,      /* J =  6 */
(PID.TID 0000.0001)                -5.400000000000000E+01,      /* J =  7 */
(PID.TID 0000.0001)                -5.000000000000000E+01,      /* J =  8 */
(PID.TID 0000.0001)                -4.600000000000000E+01,      /* J =  9 */
(PID.TID 0000.0001)                -4.200000000000000E+01,      /* J = 10 */
(PID.TID 0000.0001)                -3.800000000000000E+01,      /* J = 11 */
(PID.TID 0000.0001)                -3.400000000000000E+01,      /* J = 12 */
(PID.TID 0000.0001)                -3.000000000000000E+01,      /* J = 13 */
(PID.TID 0000.0001)                -2.600000000000000E+01,      /* J = 14 */
(PID.TID 0000.0001)                -2.200000000000000E+01,      /* J = 15 */
(PID.TID 0000.0001)                -1.800000000000000E+01,      /* J = 16 */
(PID.TID 0000.0001)                -1.400000000000000E+01,      /* J = 17 */
(PID.TID 0000.0001)                -1.000000000000000E+01,      /* J = 18 */
(PID.TID 0000.0001)                -6.000000000000000E+00,      /* J = 19 */
(PID.TID 0000.0001)                -2.000000000000000E+00,      /* J = 20 */
(PID.TID 0000.0001)                 2.000000000000000E+00,      /* J = 21 */
(PID.TID 0000.0001)                 6.000000000000000E+00,      /* J = 22 */
(PID.TID 0000.0001)                 1.000000000000000E+01,      /* J = 23 */
(PID.TID 0000.0001)                 1.400000000000000E+01,      /* J = 24 */
(PID.TID 0000.0001)                 1.800000000000000E+01,      /* J = 25 */
(PID.TID 0000.0001)                 2.200000000000000E+01,      /* J = 26 */
(PID.TID 0000.0001)                 2.600000000000000E+01,      /* J = 27 */
(PID.TID 0000.0001)                 3.000000000000000E+01,      /* J = 28 */
(PID.TID 0000.0001)                 3.400000000000000E+01,      /* J = 29 */
(PID.TID 0000.0001)                 3.800000000000000E+01,      /* J = 30 */
(PID.TID 0000.0001)                 4.200000000000000E+01,      /* J = 31 */
(PID.TID 0000.0001)                 4.600000000000000E+01,      /* J = 32 */
(PID.TID 0000.0001)                 5.000000000000000E+01,      /* J = 33 */
(PID.TID 0000.0001)                 5.400000000000000E+01,      /* J = 34 */
(PID.TID 0000.0001)                 5.800000000000000E+01,      /* J = 35 */
(PID.TID 0000.0001)                 6.200000000000000E+01,      /* J = 36 */
(PID.TID 0000.0001)                 6.600000000000000E+01,      /* J = 37 */
(PID.TID 0000.0001)                 7.000000000000000E+01,      /* J = 38 */
(PID.TID 0000.0001)                 7.400000000000000E+01,      /* J = 39 */
(PID.TID 0000.0001)                 7.800000000000000E+01       /* J = 40 */
(PID.TID 0000.0001)     ;
(PID.TID 0000.0001) rcoord = /* P-point R coordinate (  units of r ) */
(PID.TID 0000.0001)                 4.947147220607350E+07,      /* K =  1 */
(PID.TID 0000.0001)                 4.263454762566800E+07,      /* K =  2 */
(PID.TID 0000.0001)                 3.632843840014850E+07,      /* K =  3 */
(PID.TID 0000.0001)                 3.054938506199550E+07,      /* K =  4 */
(PID.TID 0000.0001)                 2.529386571176200E+07,      /* K =  5 */
(PID.TID 0000.0001)                 2.055861297691200E+07,      /* K =  6 */
(PID.TID 0000.0001)                 1.634062963636650E+07,      /* K =  7 */
(PID.TID 0000.0001)                 1.263720285714050E+07,      /* K =  8 */
(PID.TID 0000.0001)                 9.445916997983005E+06,      /* K =  9 */
(PID.TID 0000.0001)                 6.764664942628005E+06,      /* K = 10 */
(PID.TID 0000.0001)                 4.591657932111004E+06,      /* K = 11 */
(PID.TID 0000.0001)                 2.925433871632004E+06,      /* K = 12 */
(PID.TID 0000.0001)                 1.714432094064004E+06,      /* K = 13 */
(PID.TID 0000.0001)                 8.570492062405043E+05,      /* K = 14 */
(PID.TID 0000.0001)                 2.520448467505043E+05       /* K = 15 */
(PID.TID 0000.0001)     ;
(PID.TID 0000.0001) rF =   /* W-Interf. R coordinate (  units of r ) */
(PID.TID 0000.0001)                 5.302312256608400E+07,      /* K =  1 */
(PID.TID 0000.0001)                 4.591982184606300E+07,      /* K =  2 */
(PID.TID 0000.0001)                 3.934927340527300E+07,      /* K =  3 */
(PID.TID 0000.0001)                 3.330760339502400E+07,      /* K =  4 */
(PID.TID 0000.0001)                 2.779116672896700E+07,      /* K =  5 */
(PID.TID 0000.0001)                 2.279656469455700E+07,      /* K =  6 */
(PID.TID 0000.0001)                 1.832066125926699E+07,      /* K =  7 */
(PID.TID 0000.0001)                 1.436059801346599E+07,      /* K =  8 */
(PID.TID 0000.0001)                 1.091380770081500E+07,      /* K =  9 */
(PID.TID 0000.0001)                 7.978026295150995E+06,      /* K = 10 */
(PID.TID 0000.0001)                 5.551303590104995E+06,      /* K = 11 */
(PID.TID 0000.0001)                 3.632012274116995E+06,      /* K = 12 */
(PID.TID 0000.0001)                 2.218855469146995E+06,      /* K = 13 */
(PID.TID 0000.0001)                 1.210008718980995E+06,      /* K = 14 */
(PID.TID 0000.0001)                 5.040896934999955E+05,      /* K = 15 */
(PID.TID 0000.0001)                 9.955256246030331E-07       /* K = 16 */
(PID.TID 0000.0001)     ;
(PID.TID 0000.0001) deepFacC = /* deep-model grid factor @ cell-Center (-) */
(PID.TID 0000.0001)    15 @  1.000000000000000E+00              /* K =  1: 15 */
(PID.TID 0000.0001)     ;
(PID.TID 0000.0001) deepFacF = /* deep-model grid factor @ W-Interface (-) */
(PID.TID 0000.0001)    16 @  1.000000000000000E+00              /* K =  1: 16 */
(PID.TID 0000.0001)     ;
(PID.TID 0000.0001) rVel2wUnit = /* convert units: rVel -> wSpeed (=1 if z-coord)*/
(PID.TID 0000.0001)                 9.741857413830955E-05,      /* K =  1 */
(PID.TID 0000.0001)                 9.767560854698387E-05,      /* K =  2 */
(PID.TID 0000.0001)                 9.791810961961699E-05,      /* K =  3 */
(PID.TID 0000.0001)                 9.814523044582380E-05,      /* K =  4 */
(PID.TID 0000.0001)                 9.835616206441658E-05,      /* K =  5 */
(PID.TID 0000.0001)                 9.855013950127949E-05,      /* K =  6 */
(PID.TID 0000.0001)                 9.872644762905337E-05,      /* K =  7 */
(PID.TID 0000.0001)                 9.888442677437525E-05,      /* K =  8 */
(PID.TID 0000.0001)                 9.902347799921741E-05,      /* K =  9 */
(PID.TID 0000.0001)                 9.914306798509472E-05,      /* K = 10 */
(PID.TID 0000.0001)                 9.924273345256813E-05,      /* K = 11 */
(PID.TID 0000.0001)                 9.932208505354885E-05,      /* K = 12 */
(PID.TID 0000.0001)                 9.938081068032788E-05,      /* K = 13 */
(PID.TID 0000.0001)                 9.942289122372219E-05,      /* K = 14 */
(PID.TID 0000.0001)                 9.945241412037006E-05,      /* K = 15 */
(PID.TID 0000.0001)                 9.947353552744130E-05       /* K = 16 */
(PID.TID 0000.0001)     ;
(PID.TID 0000.0001) wUnit2rVel = /* convert units: wSpeed -> rVel (=1 if z-coord)*/
(PID.TID 0000.0001)                 1.026498292389555E+04,      /* K =  1 */
(PID.TID 0000.0001)                 1.023797051153237E+04,      /* K =  2 */
(PID.TID 0000.0001)                 1.021261545882274E+04,      /* K =  3 */
(PID.TID 0000.0001)                 1.018898213858696E+04,      /* K =  4 */
(PID.TID 0000.0001)                 1.016713115895136E+04,      /* K =  5 */
(PID.TID 0000.0001)                 1.014711907117104E+04,      /* K =  6 */
(PID.TID 0000.0001)                 1.012899809539707E+04,      /* K =  7 */
(PID.TID 0000.0001)                 1.011281586615961E+04,      /* K =  8 */
(PID.TID 0000.0001)                 1.009861519919451E+04,      /* K =  9 */
(PID.TID 0000.0001)                 1.008643388108931E+04,      /* K = 10 */
(PID.TID 0000.0001)                 1.007630448306765E+04,      /* K = 11 */
(PID.TID 0000.0001)                 1.006825420006896E+04,      /* K = 12 */
(PID.TID 0000.0001)                 1.006230471611505E+04,      /* K = 13 */
(PID.TID 0000.0001)                 1.005804586541134E+04,      /* K = 14 */
(PID.TID 0000.0001)                 1.005506008923697E+04,      /* K = 15 */
(PID.TID 0000.0001)                 1.005292507899385E+04       /* K = 16 */
(PID.TID 0000.0001)     ;
(PID.TID 0000.0001) dBdrRef = /* Vertical grad. of reference buoyancy [(m/s/r)^2] */
(PID.TID 0000.0001)    15 @  0.000000000000000E+00              /* K =  1: 15 */
(PID.TID 0000.0001)     ;
(PID.TID 0000.0001) rotateGrid = /* use rotated grid ( True/False ) */
(PID.TID 0000.0001)                   F
(PID.TID 0000.0001)     ;
(PID.TID 0000.0001) phiEuler = /* Euler angle, rotation about original z-coordinate [rad] */
(PID.TID 0000.0001)                 0.000000000000000E+00
(PID.TID 0000.0001)     ;
(PID.TID 0000.0001) thetaEuler = /* Euler angle, rotation about new x-coordinate [rad] */
(PID.TID 0000.0001)                 0.000000000000000E+00
(PID.TID 0000.0001)     ;
(PID.TID 0000.0001) psiEuler = /* Euler angle, rotation about new z-coordinate [rad] */
(PID.TID 0000.0001)                 0.000000000000000E+00
(PID.TID 0000.0001)     ;
(PID.TID 0000.0001) dxF =  /* dxF(:,1,:,1) ( units: m ) */
(PID.TID 0000.0001)    90 @  9.246038586187513E+04              /* I =  1: 90 */
(PID.TID 0000.0001)     ;
(PID.TID 0000.0001) dxF =  /* dxF(1,:,1,:) ( units: m ) */
(PID.TID 0000.0001)                 9.246038586187513E+04,      /* J =  1 */
(PID.TID 0000.0001)                 1.225786591246834E+05,      /* J =  2 */
(PID.TID 0000.0001)                 1.520997414818001E+05,      /* J =  3 */
(PID.TID 0000.0001)                 1.808798091874300E+05,      /* J =  4 */
(PID.TID 0000.0001)                 2.087786486446736E+05,      /* J =  5 */
(PID.TID 0000.0001)                 2.356603395120765E+05,      /* J =  6 */
(PID.TID 0000.0001)                 2.613939168938713E+05,      /* J =  7 */
(PID.TID 0000.0001)                 2.858540093877838E+05,      /* J =  8 */
(PID.TID 0000.0001)                 3.089214498819034E+05,      /* J =  9 */
(PID.TID 0000.0001)                 3.304838561248741E+05,      /* J = 10 */
(PID.TID 0000.0001)                 3.504361782409254E+05,      /* J = 11 */
(PID.TID 0000.0001)                 3.686812105223082E+05,      /* J = 12 */
(PID.TID 0000.0001)                 3.851300650057323E+05,      /* J = 13 */
(PID.TID 0000.0001)                 3.997026045255871E+05,      /* J = 14 */
(PID.TID 0000.0001)                 4.123278331341585E+05,      /* J = 15 */
(PID.TID 0000.0001)                 4.229442419867491E+05,      /* J = 16 */
(PID.TID 0000.0001)                 4.315001090065870E+05,      /* J = 17 */
(PID.TID 0000.0001)                 4.379537508695838E+05,      /* J = 18 */
(PID.TID 0000.0001)                 4.422737260813012E+05,      /* J = 19 */
(PID.TID 0000.0001)     2 @  4.444389881567502E+05,             /* J = 20: 21 */
(PID.TID 0000.0001)                 4.422737260813012E+05,      /* J = 22 */
(PID.TID 0000.0001)                 4.379537508695838E+05,      /* J = 23 */
(PID.TID 0000.0001)                 4.315001090065870E+05,      /* J = 24 */
(PID.TID 0000.0001)                 4.229442419867491E+05,      /* J = 25 */
(PID.TID 0000.0001)                 4.123278331341585E+05,      /* J = 26 */
(PID.TID 0000.0001)                 3.997026045255871E+05,      /* J = 27 */
(PID.TID 0000.0001)                 3.851300650057323E+05,      /* J = 28 */
(PID.TID 0000.0001)                 3.686812105223082E+05,      /* J = 29 */
(PID.TID 0000.0001)                 3.504361782409254E+05,      /* J = 30 */
(PID.TID 0000.0001)                 3.304838561248741E+05,      /* J = 31 */
(PID.TID 0000.0001)                 3.089214498819034E+05,      /* J = 32 */
(PID.TID 0000.0001)                 2.858540093877838E+05,      /* J = 33 */
(PID.TID 0000.0001)                 2.613939168938713E+05,      /* J = 34 */
(PID.TID 0000.0001)                 2.356603395120765E+05,      /* J = 35 */
(PID.TID 0000.0001)                 2.087786486446736E+05,      /* J = 36 */
(PID.TID 0000.0001)                 1.808798091874300E+05,      /* J = 37 */
(PID.TID 0000.0001)                 1.520997414818001E+05,      /* J = 38 */
(PID.TID 0000.0001)                 1.225786591246834E+05,      /* J = 39 */
(PID.TID 0000.0001)                 9.246038586187513E+04       /* J = 40 */
(PID.TID 0000.0001)     ;
(PID.TID 0000.0001) dyF =  /* dyF(:,1,:,1) ( units: m ) */
(PID.TID 0000.0001)    90 @  4.447098934081552E+05              /* I =  1: 90 */
(PID.TID 0000.0001)     ;
(PID.TID 0000.0001) dyF =  /* dyF(1,:,1,:) ( units: m ) */
(PID.TID 0000.0001)    40 @  4.447098934081552E+05              /* J =  1: 40 */
(PID.TID 0000.0001)     ;
(PID.TID 0000.0001) dxG =  /* dxG(:,1,:,1) ( units: m ) */
(PID.TID 0000.0001)    90 @  7.722306258078101E+04              /* I =  1: 90 */
(PID.TID 0000.0001)     ;
(PID.TID 0000.0001) dxG =  /* dxG(1,:,1,:) ( units: m ) */
(PID.TID 0000.0001)                 7.722306258078101E+04,      /* J =  1 */
(PID.TID 0000.0001)                 1.075850604052271E+05,      /* J =  2 */
(PID.TID 0000.0001)                 1.374229146297914E+05,      /* J =  3 */
(PID.TID 0000.0001)                 1.665912582279823E+05,      /* J =  4 */
(PID.TID 0000.0001)                 1.949479859617814E+05,      /* J =  5 */
(PID.TID 0000.0001)                 2.223549467040777E+05,      /* J =  6 */
(PID.TID 0000.0001)                 2.486786164970726E+05,      /* J =  7 */
(PID.TID 0000.0001)                 2.737907490675810E+05,      /* J =  8 */
(PID.TID 0000.0001)                 2.975690006299821E+05,      /* J =  9 */
(PID.TID 0000.0001)                 3.198975259328452E+05,      /* J = 10 */
(PID.TID 0000.0001)                 3.406675426453503E+05,      /* J = 11 */
(PID.TID 0000.0001)                 3.597778613338690E+05,      /* J = 12 */
(PID.TID 0000.0001)                 3.771353784467131E+05,      /* J = 13 */
(PID.TID 0000.0001)                 3.926555299052806E+05,      /* J = 14 */
(PID.TID 0000.0001)                 4.062627030917454E+05,      /* J = 15 */
(PID.TID 0000.0001)                 4.178906052261313E+05,      /* J = 16 */
(PID.TID 0000.0001)                 4.274825863380723E+05,      /* J = 17 */
(PID.TID 0000.0001)                 4.349919152597734E+05,      /* J = 18 */
(PID.TID 0000.0001)                 4.403820072955634E+05,      /* J = 19 */
(PID.TID 0000.0001)                 4.436266024588540E+05,      /* J = 20 */
(PID.TID 0000.0001)                 4.447098934081552E+05,      /* J = 21 */
(PID.TID 0000.0001)                 4.436266024588540E+05,      /* J = 22 */
(PID.TID 0000.0001)                 4.403820072955634E+05,      /* J = 23 */
(PID.TID 0000.0001)                 4.349919152597734E+05,      /* J = 24 */
(PID.TID 0000.0001)                 4.274825863380723E+05,      /* J = 25 */
(PID.TID 0000.0001)                 4.178906052261313E+05,      /* J = 26 */
(PID.TID 0000.0001)                 4.062627030917454E+05,      /* J = 27 */
(PID.TID 0000.0001)                 3.926555299052806E+05,      /* J = 28 */
(PID.TID 0000.0001)                 3.771353784467131E+05,      /* J = 29 */
(PID.TID 0000.0001)                 3.597778613338690E+05,      /* J = 30 */
(PID.TID 0000.0001)                 3.406675426453503E+05,      /* J = 31 */
(PID.TID 0000.0001)                 3.198975259328452E+05,      /* J = 32 */
(PID.TID 0000.0001)                 2.975690006299821E+05,      /* J = 33 */
(PID.TID 0000.0001)                 2.737907490675810E+05,      /* J = 34 */
(PID.TID 0000.0001)                 2.486786164970726E+05,      /* J = 35 */
(PID.TID 0000.0001)                 2.223549467040777E+05,      /* J = 36 */
(PID.TID 0000.0001)                 1.949479859617814E+05,      /* J = 37 */
(PID.TID 0000.0001)                 1.665912582279823E+05,      /* J = 38 */
(PID.TID 0000.0001)                 1.374229146297914E+05,      /* J = 39 */
(PID.TID 0000.0001)                 1.075850604052271E+05       /* J = 40 */
(PID.TID 0000.0001)     ;
(PID.TID 0000.0001) dyG =  /* dyG(:,1,:,1) ( units: m ) */
(PID.TID 0000.0001)    90 @  4.447098934081552E+05              /* I =  1: 90 */
(PID.TID 0000.0001)     ;
(PID.TID 0000.0001) dyG =  /* dyG(1,:,1,:) ( units: m ) */
(PID.TID 0000.0001)    40 @  4.447098934081552E+05              /* J =  1: 40 */
(PID.TID 0000.0001)     ;
(PID.TID 0000.0001) dxC =  /* dxC(:,1,:,1) ( units: m ) */
(PID.TID 0000.0001)    90 @  9.246038586187513E+04              /* I =  1: 90 */
(PID.TID 0000.0001)     ;
(PID.TID 0000.0001) dxC =  /* dxC(1,:,1,:) ( units: m ) */
(PID.TID 0000.0001)                 9.246038586187513E+04,      /* J =  1 */
(PID.TID 0000.0001)                 1.225786591246834E+05,      /* J =  2 */
(PID.TID 0000.0001)                 1.520997414818001E+05,      /* J =  3 */
(PID.TID 0000.0001)                 1.808798091874300E+05,      /* J =  4 */
(PID.TID 0000.0001)                 2.087786486446736E+05,      /* J =  5 */
(PID.TID 0000.0001)                 2.356603395120765E+05,      /* J =  6 */
(PID.TID 0000.0001)                 2.613939168938713E+05,      /* J =  7 */
(PID.TID 0000.0001)                 2.858540093877838E+05,      /* J =  8 */
(PID.TID 0000.0001)                 3.089214498819034E+05,      /* J =  9 */
(PID.TID 0000.0001)                 3.304838561248741E+05,      /* J = 10 */
(PID.TID 0000.0001)                 3.504361782409254E+05,      /* J = 11 */
(PID.TID 0000.0001)                 3.686812105223082E+05,      /* J = 12 */
(PID.TID 0000.0001)                 3.851300650057323E+05,      /* J = 13 */
(PID.TID 0000.0001)                 3.997026045255871E+05,      /* J = 14 */
(PID.TID 0000.0001)                 4.123278331341585E+05,      /* J = 15 */
(PID.TID 0000.0001)                 4.229442419867491E+05,      /* J = 16 */
(PID.TID 0000.0001)                 4.315001090065870E+05,      /* J = 17 */
(PID.TID 0000.0001)                 4.379537508695838E+05,      /* J = 18 */
(PID.TID 0000.0001)                 4.422737260813012E+05,      /* J = 19 */
(PID.TID 0000.0001)     2 @  4.444389881567502E+05,             /* J = 20: 21 */
(PID.TID 0000.0001)                 4.422737260813012E+05,      /* J = 22 */
(PID.TID 0000.0001)                 4.379537508695838E+05,      /* J = 23 */
(PID.TID 0000.0001)                 4.315001090065870E+05,      /* J = 24 */
(PID.TID 0000.0001)                 4.229442419867491E+05,      /* J = 25 */
(PID.TID 0000.0001)                 4.123278331341585E+05,      /* J = 26 */
(PID.TID 0000.0001)                 3.997026045255871E+05,      /* J = 27 */
(PID.TID 0000.0001)                 3.851300650057323E+05,      /* J = 28 */
(PID.TID 0000.0001)                 3.686812105223082E+05,      /* J = 29 */
(PID.TID 0000.0001)                 3.504361782409254E+05,      /* J = 30 */
(PID.TID 0000.0001)                 3.304838561248741E+05,      /* J = 31 */
(PID.TID 0000.0001)                 3.089214498819034E+05,      /* J = 32 */
(PID.TID 0000.0001)                 2.858540093877838E+05,      /* J = 33 */
(PID.TID 0000.0001)                 2.613939168938713E+05,      /* J = 34 */
(PID.TID 0000.0001)                 2.356603395120765E+05,      /* J = 35 */
(PID.TID 0000.0001)                 2.087786486446736E+05,      /* J = 36 */
(PID.TID 0000.0001)                 1.808798091874300E+05,      /* J = 37 */
(PID.TID 0000.0001)                 1.520997414818001E+05,      /* J = 38 */
(PID.TID 0000.0001)                 1.225786591246834E+05,      /* J = 39 */
(PID.TID 0000.0001)                 9.246038586187513E+04       /* J = 40 */
(PID.TID 0000.0001)     ;
(PID.TID 0000.0001) dyC =  /* dyC(:,1,:,1) ( units: m ) */
(PID.TID 0000.0001)    90 @  4.447098934081552E+05              /* I =  1: 90 */
(PID.TID 0000.0001)     ;
(PID.TID 0000.0001) dyC =  /* dyC(1,:,1,:) ( units: m ) */
(PID.TID 0000.0001)    40 @  4.447098934081552E+05              /* J =  1: 40 */
(PID.TID 0000.0001)     ;
(PID.TID 0000.0001) dxV =  /* dxV(:,1,:,1) ( units: m ) */
(PID.TID 0000.0001)    90 @  7.722306258078101E+04              /* I =  1: 90 */
(PID.TID 0000.0001)     ;
(PID.TID 0000.0001) dxV =  /* dxV(1,:,1,:) ( units: m ) */
(PID.TID 0000.0001)                 7.722306258078101E+04,      /* J =  1 */
(PID.TID 0000.0001)                 1.075850604052271E+05,      /* J =  2 */
(PID.TID 0000.0001)                 1.374229146297914E+05,      /* J =  3 */
(PID.TID 0000.0001)                 1.665912582279823E+05,      /* J =  4 */
(PID.TID 0000.0001)                 1.949479859617814E+05,      /* J =  5 */
(PID.TID 0000.0001)                 2.223549467040777E+05,      /* J =  6 */
(PID.TID 0000.0001)                 2.486786164970726E+05,      /* J =  7 */
(PID.TID 0000.0001)                 2.737907490675810E+05,      /* J =  8 */
(PID.TID 0000.0001)                 2.975690006299821E+05,      /* J =  9 */
(PID.TID 0000.0001)                 3.198975259328452E+05,      /* J = 10 */
(PID.TID 0000.0001)                 3.406675426453503E+05,      /* J = 11 */
(PID.TID 0000.0001)                 3.597778613338690E+05,      /* J = 12 */
(PID.TID 0000.0001)                 3.771353784467131E+05,      /* J = 13 */
(PID.TID 0000.0001)                 3.926555299052806E+05,      /* J = 14 */
(PID.TID 0000.0001)                 4.062627030917454E+05,      /* J = 15 */
(PID.TID 0000.0001)                 4.178906052261313E+05,      /* J = 16 */
(PID.TID 0000.0001)                 4.274825863380723E+05,      /* J = 17 */
(PID.TID 0000.0001)                 4.349919152597734E+05,      /* J = 18 */
(PID.TID 0000.0001)                 4.403820072955634E+05,      /* J = 19 */
(PID.TID 0000.0001)                 4.436266024588540E+05,      /* J = 20 */
(PID.TID 0000.0001)                 4.447098934081552E+05,      /* J = 21 */
(PID.TID 0000.0001)                 4.436266024588540E+05,      /* J = 22 */
(PID.TID 0000.0001)                 4.403820072955634E+05,      /* J = 23 */
(PID.TID 0000.0001)                 4.349919152597734E+05,      /* J = 24 */
(PID.TID 0000.0001)                 4.274825863380723E+05,      /* J = 25 */
(PID.TID 0000.0001)                 4.178906052261313E+05,      /* J = 26 */
(PID.TID 0000.0001)                 4.062627030917454E+05,      /* J = 27 */
(PID.TID 0000.0001)                 3.926555299052806E+05,      /* J = 28 */
(PID.TID 0000.0001)                 3.771353784467131E+05,      /* J = 29 */
(PID.TID 0000.0001)                 3.597778613338690E+05,      /* J = 30 */
(PID.TID 0000.0001)                 3.406675426453503E+05,      /* J = 31 */
(PID.TID 0000.0001)                 3.198975259328452E+05,      /* J = 32 */
(PID.TID 0000.0001)                 2.975690006299821E+05,      /* J = 33 */
(PID.TID 0000.0001)                 2.737907490675810E+05,      /* J = 34 */
(PID.TID 0000.0001)                 2.486786164970726E+05,      /* J = 35 */
(PID.TID 0000.0001)                 2.223549467040777E+05,      /* J = 36 */
(PID.TID 0000.0001)                 1.949479859617814E+05,      /* J = 37 */
(PID.TID 0000.0001)                 1.665912582279823E+05,      /* J = 38 */
(PID.TID 0000.0001)                 1.374229146297914E+05,      /* J = 39 */
(PID.TID 0000.0001)                 1.075850604052271E+05       /* J = 40 */
(PID.TID 0000.0001)     ;
(PID.TID 0000.0001) dyU =  /* dyU(:,1,:,1) ( units: m ) */
(PID.TID 0000.0001)    90 @  4.447098934081552E+05              /* I =  1: 90 */
(PID.TID 0000.0001)     ;
(PID.TID 0000.0001) dyU =  /* dyU(1,:,1,:) ( units: m ) */
(PID.TID 0000.0001)    40 @  4.447098934081552E+05              /* J =  1: 40 */
(PID.TID 0000.0001)     ;
(PID.TID 0000.0001) rA  =  /* rA (:,1,:,1) ( units: m^2 ) */
(PID.TID 0000.0001)    90 @  4.110969866729047E+10              /* I =  1: 90 */
(PID.TID 0000.0001)     ;
(PID.TID 0000.0001) rA  =  /* rA (1,:,1,:) ( units: m^2 ) */
(PID.TID 0000.0001)                 4.110969866729047E+10,      /* J =  1 */
(PID.TID 0000.0001)                 5.450087291636665E+10,      /* J =  2 */
(PID.TID 0000.0001)                 6.762652439100235E+10,      /* J =  3 */
(PID.TID 0000.0001)                 8.042270623659998E+10,      /* J =  4 */
(PID.TID 0000.0001)                 9.282707674147523E+10,      /* J =  5 */
(PID.TID 0000.0001)                 1.047792030594103E+11,      /* J =  6 */
(PID.TID 0000.0001)                 1.162208556324093E+11,      /* J =  7 */
(PID.TID 0000.0001)                 1.270962918792468E+11,      /* J =  8 */
(PID.TID 0000.0001)                 1.373525277677229E+11,      /* J =  9 */
(PID.TID 0000.0001)                 1.469395959475426E+11,      /* J = 10 */
(PID.TID 0000.0001)                 1.558107891862220E+11,      /* J = 11 */
(PID.TID 0000.0001)                 1.639228879220326E+11,      /* J = 12 */
(PID.TID 0000.0001)                 1.712363708253573E+11,      /* J = 13 */
(PID.TID 0000.0001)                 1.777156073426415E+11,      /* J = 14 */
(PID.TID 0000.0001)                 1.833290312848623E+11,      /* J = 15 */
(PID.TID 0000.0001)                 1.880492946148330E+11,      /* J = 16 */
(PID.TID 0000.0001)                 1.918534006840893E+11,      /* J = 17 */
(PID.TID 0000.0001)                 1.947228162702492E+11,      /* J = 18 */
(PID.TID 0000.0001)                 1.966435618690094E+11,      /* J = 19 */
(PID.TID 0000.0001)     2 @  1.976062798008856E+11,             /* J = 20: 21 */
(PID.TID 0000.0001)                 1.966435618690094E+11,      /* J = 22 */
(PID.TID 0000.0001)                 1.947228162702492E+11,      /* J = 23 */
(PID.TID 0000.0001)                 1.918534006840893E+11,      /* J = 24 */
(PID.TID 0000.0001)                 1.880492946148330E+11,      /* J = 25 */
(PID.TID 0000.0001)                 1.833290312848623E+11,      /* J = 26 */
(PID.TID 0000.0001)                 1.777156073426415E+11,      /* J = 27 */
(PID.TID 0000.0001)                 1.712363708253573E+11,      /* J = 28 */
(PID.TID 0000.0001)                 1.639228879220326E+11,      /* J = 29 */
(PID.TID 0000.0001)                 1.558107891862220E+11,      /* J = 30 */
(PID.TID 0000.0001)                 1.469395959475426E+11,      /* J = 31 */
(PID.TID 0000.0001)                 1.373525277677229E+11,      /* J = 32 */
(PID.TID 0000.0001)                 1.270962918792468E+11,      /* J = 33 */
(PID.TID 0000.0001)                 1.162208556324093E+11,      /* J = 34 */
(PID.TID 0000.0001)                 1.047792030594103E+11,      /* J = 35 */
(PID.TID 0000.0001)                 9.282707674147523E+10,      /* J = 36 */
(PID.TID 0000.0001)                 8.042270623659998E+10,      /* J = 37 */
(PID.TID 0000.0001)                 6.762652439100235E+10,      /* J = 38 */
(PID.TID 0000.0001)                 5.450087291636665E+10,      /* J = 39 */
(PID.TID 0000.0001)                 4.110969866729047E+10       /* J = 40 */
(PID.TID 0000.0001)     ;
(PID.TID 0000.0001) rAw =  /* rAw(:,1,:,1) ( units: m^2 ) */
(PID.TID 0000.0001)    90 @  4.110969866729047E+10              /* I =  1: 90 */
(PID.TID 0000.0001)     ;
(PID.TID 0000.0001) rAw =  /* rAw(1,:,1,:) ( units: m^2 ) */
(PID.TID 0000.0001)                 4.110969866729047E+10,      /* J =  1 */
(PID.TID 0000.0001)                 5.450087291636665E+10,      /* J =  2 */
(PID.TID 0000.0001)                 6.762652439100235E+10,      /* J =  3 */
(PID.TID 0000.0001)                 8.042270623659998E+10,      /* J =  4 */
(PID.TID 0000.0001)                 9.282707674147523E+10,      /* J =  5 */
(PID.TID 0000.0001)                 1.047792030594103E+11,      /* J =  6 */
(PID.TID 0000.0001)                 1.162208556324093E+11,      /* J =  7 */
(PID.TID 0000.0001)                 1.270962918792468E+11,      /* J =  8 */
(PID.TID 0000.0001)                 1.373525277677229E+11,      /* J =  9 */
(PID.TID 0000.0001)                 1.469395959475426E+11,      /* J = 10 */
(PID.TID 0000.0001)                 1.558107891862220E+11,      /* J = 11 */
(PID.TID 0000.0001)                 1.639228879220326E+11,      /* J = 12 */
(PID.TID 0000.0001)                 1.712363708253573E+11,      /* J = 13 */
(PID.TID 0000.0001)                 1.777156073426415E+11,      /* J = 14 */
(PID.TID 0000.0001)                 1.833290312848623E+11,      /* J = 15 */
(PID.TID 0000.0001)                 1.880492946148330E+11,      /* J = 16 */
(PID.TID 0000.0001)                 1.918534006840893E+11,      /* J = 17 */
(PID.TID 0000.0001)                 1.947228162702492E+11,      /* J = 18 */
(PID.TID 0000.0001)                 1.966435618690094E+11,      /* J = 19 */
(PID.TID 0000.0001)     2 @  1.976062798008856E+11,             /* J = 20: 21 */
(PID.TID 0000.0001)                 1.966435618690094E+11,      /* J = 22 */
(PID.TID 0000.0001)                 1.947228162702492E+11,      /* J = 23 */
(PID.TID 0000.0001)                 1.918534006840893E+11,      /* J = 24 */
(PID.TID 0000.0001)                 1.880492946148330E+11,      /* J = 25 */
(PID.TID 0000.0001)                 1.833290312848623E+11,      /* J = 26 */
(PID.TID 0000.0001)                 1.777156073426415E+11,      /* J = 27 */
(PID.TID 0000.0001)                 1.712363708253573E+11,      /* J = 28 */
(PID.TID 0000.0001)                 1.639228879220326E+11,      /* J = 29 */
(PID.TID 0000.0001)                 1.558107891862220E+11,      /* J = 30 */
(PID.TID 0000.0001)                 1.469395959475426E+11,      /* J = 31 */
(PID.TID 0000.0001)                 1.373525277677229E+11,      /* J = 32 */
(PID.TID 0000.0001)                 1.270962918792468E+11,      /* J = 33 */
(PID.TID 0000.0001)                 1.162208556324093E+11,      /* J = 34 */
(PID.TID 0000.0001)                 1.047792030594103E+11,      /* J = 35 */
(PID.TID 0000.0001)                 9.282707674147523E+10,      /* J = 36 */
(PID.TID 0000.0001)                 8.042270623659998E+10,      /* J = 37 */
(PID.TID 0000.0001)                 6.762652439100235E+10,      /* J = 38 */
(PID.TID 0000.0001)                 5.450087291636665E+10,      /* J = 39 */
(PID.TID 0000.0001)                 4.110969866729047E+10       /* J = 40 */
(PID.TID 0000.0001)     ;
(PID.TID 0000.0001) rAs =  /* rAs(:,1,:,1) ( units: m^2 ) */
(PID.TID 0000.0001)    90 @  3.433488626798250E+10              /* I =  1: 90 */
(PID.TID 0000.0001)     ;
(PID.TID 0000.0001) rAs =  /* rAs(1,:,1,:) ( units: m^2 ) */
(PID.TID 0000.0001)                 3.433488626798250E+10,      /* J =  1 */
(PID.TID 0000.0001)                 4.783442523123625E+10,      /* J =  2 */
(PID.TID 0000.0001)                 6.110091968306414E+10,      /* J =  3 */
(PID.TID 0000.0001)                 7.406973659603818E+10,      /* J =  4 */
(PID.TID 0000.0001)                 8.667769319778079E+10,      /* J =  5 */
(PID.TID 0000.0001)                 9.886336479107463E+10,      /* J =  6 */
(PID.TID 0000.0001)                 1.105673840088173E+11,      /* J =  7 */
(PID.TID 0000.0001)                 1.217327300458638E+11,      /* J =  8 */
(PID.TID 0000.0001)                 1.323050064586578E+11,      /* J =  9 */
(PID.TID 0000.0001)                 1.422327061792377E+11,      /* J = 10 */
(PID.TID 0000.0001)                 1.514674624524945E+11,      /* J = 11 */
(PID.TID 0000.0001)                 1.599642844741385E+11,      /* J = 12 */
(PID.TID 0000.0001)                 1.676817765813788E+11,      /* J = 13 */
(PID.TID 0000.0001)                 1.745823399284268E+11,      /* J = 14 */
(PID.TID 0000.0001)                 1.806323556642996E+11,      /* J = 15 */
(PID.TID 0000.0001)                 1.858023487204767E+11,      /* J = 16 */
(PID.TID 0000.0001)                 1.900671314104743E+11,      /* J = 17 */
(PID.TID 0000.0001)                 1.934059261417216E+11,      /* J = 18 */
(PID.TID 0000.0001)                 1.958024666419019E+11,      /* J = 19 */
(PID.TID 0000.0001)                 1.972450772065981E+11,      /* J = 20 */
(PID.TID 0000.0001)                 1.977267295821495E+11,      /* J = 21 */
(PID.TID 0000.0001)                 1.972450772065981E+11,      /* J = 22 */
(PID.TID 0000.0001)                 1.958024666419019E+11,      /* J = 23 */
(PID.TID 0000.0001)                 1.934059261417216E+11,      /* J = 24 */
(PID.TID 0000.0001)                 1.900671314104743E+11,      /* J = 25 */
(PID.TID 0000.0001)                 1.858023487204767E+11,      /* J = 26 */
(PID.TID 0000.0001)                 1.806323556642996E+11,      /* J = 27 */
(PID.TID 0000.0001)                 1.745823399284268E+11,      /* J = 28 */
(PID.TID 0000.0001)                 1.676817765813788E+11,      /* J = 29 */
(PID.TID 0000.0001)                 1.599642844741385E+11,      /* J = 30 */
(PID.TID 0000.0001)                 1.514674624524945E+11,      /* J = 31 */
(PID.TID 0000.0001)                 1.422327061792377E+11,      /* J = 32 */
(PID.TID 0000.0001)                 1.323050064586578E+11,      /* J = 33 */
(PID.TID 0000.0001)                 1.217327300458638E+11,      /* J = 34 */
(PID.TID 0000.0001)                 1.105673840088173E+11,      /* J = 35 */
(PID.TID 0000.0001)                 9.886336479107463E+10,      /* J = 36 */
(PID.TID 0000.0001)                 8.667769319778079E+10,      /* J = 37 */
(PID.TID 0000.0001)                 7.406973659603818E+10,      /* J = 38 */
(PID.TID 0000.0001)                 6.110091968306414E+10,      /* J = 39 */
(PID.TID 0000.0001)                 4.783442523123625E+10       /* J = 40 */
(PID.TID 0000.0001)     ;
(PID.TID 0000.0001) globalArea = /* Integrated horizontal Area (m^2) */
(PID.TID 0000.0001)                 3.444981130405358E+14
(PID.TID 0000.0001)     ;
(PID.TID 0000.0001) // =======================================================
(PID.TID 0000.0001) // End of Model config. summary
(PID.TID 0000.0001) // =======================================================
(PID.TID 0000.0001) 
(PID.TID 0000.0001) == Packages configuration : Check & print summary ==
(PID.TID 0000.0001) 
(PID.TID 0000.0001) GAD_CHECK: #define ALLOW_GENERIC_ADVDIFF
(PID.TID 0000.0001) // =======================================================
(PID.TID 0000.0001) // CONFIG_CHECK : Normal End
(PID.TID 0000.0001) // =======================================================
(PID.TID 0000.0001) 
(PID.TID 0000.0001)  MDS_READ_FIELD: opening global file: lev_t.bin
(PID.TID 0000.0001)  MDS_READ_FIELD: opening global file: lev_s.bin
(PID.TID 0000.0001) Start initial hydrostatic pressure computation
(PID.TID 0000.0001) Pressure is predetermined for buoyancyRelation OCEANICP
(PID.TID 0000.0001) 
(PID.TID 0000.0001)  MDS_READ_FIELD: opening global file: trenberth_taux.bin
(PID.TID 0000.0001)  MDS_READ_FIELD: opening global file: trenberth_tauy.bin
(PID.TID 0000.0001)  MDS_READ_FIELD: opening global file: shi_qnet.bin
(PID.TID 0000.0001)  MDS_READ_FIELD: opening global file: shi_empmr.bin
(PID.TID 0000.0001)  MDS_READ_FIELD: opening global file: lev_sst.bin
(PID.TID 0000.0001)  MDS_READ_FIELD: opening global file: deltageopotjmd95.bin
(PID.TID 0000.0001) // =======================================================
(PID.TID 0000.0001) // Model current state
(PID.TID 0000.0001) // =======================================================
(PID.TID 0000.0001) 
(PID.TID 0000.0001) // =======================================================
(PID.TID 0000.0001) // Begin MONITOR dynamic field statistics
(PID.TID 0000.0001) // =======================================================
(PID.TID 0000.0001) %MON time_tsnumber                =                     0
(PID.TID 0000.0001) %MON time_secondsf                =   0.0000000000000E+00
(PID.TID 0000.0001) %MON dynstat_eta_max              =   0.0000000000000E+00
(PID.TID 0000.0001) %MON dynstat_eta_min              =   0.0000000000000E+00
(PID.TID 0000.0001) %MON dynstat_eta_mean             =   0.0000000000000E+00
(PID.TID 0000.0001) %MON dynstat_eta_sd               =   0.0000000000000E+00
(PID.TID 0000.0001) %MON dynstat_eta_del2             =   0.0000000000000E+00
(PID.TID 0000.0001) %MON dynstat_uvel_max             =   0.0000000000000E+00
(PID.TID 0000.0001) %MON dynstat_uvel_min             =   0.0000000000000E+00
(PID.TID 0000.0001) %MON dynstat_uvel_mean            =   0.0000000000000E+00
(PID.TID 0000.0001) %MON dynstat_uvel_sd              =   0.0000000000000E+00
(PID.TID 0000.0001) %MON dynstat_uvel_del2            =   0.0000000000000E+00
(PID.TID 0000.0001) %MON dynstat_vvel_max             =   0.0000000000000E+00
(PID.TID 0000.0001) %MON dynstat_vvel_min             =   0.0000000000000E+00
(PID.TID 0000.0001) %MON dynstat_vvel_mean            =   0.0000000000000E+00
(PID.TID 0000.0001) %MON dynstat_vvel_sd              =   0.0000000000000E+00
(PID.TID 0000.0001) %MON dynstat_vvel_del2            =   0.0000000000000E+00
(PID.TID 0000.0001) %MON dynstat_wvel_max             =  -0.0000000000000E+00
(PID.TID 0000.0001) %MON dynstat_wvel_min             =  -0.0000000000000E+00
(PID.TID 0000.0001) %MON dynstat_wvel_mean            =   0.0000000000000E+00
(PID.TID 0000.0001) %MON dynstat_wvel_sd              =   0.0000000000000E+00
(PID.TID 0000.0001) %MON dynstat_wvel_del2            =   0.0000000000000E+00
(PID.TID 0000.0001) %MON dynstat_theta_max            =   2.9733511003948E+01
(PID.TID 0000.0001) %MON dynstat_theta_min            =  -2.6263839329562E+00
(PID.TID 0000.0001) %MON dynstat_theta_mean           =   3.6018664655656E+00
(PID.TID 0000.0001) %MON dynstat_theta_sd             =   4.4018845380981E+00
(PID.TID 0000.0001) %MON dynstat_theta_del2           =   5.7770997867767E-03
(PID.TID 0000.0001) %MON dynstat_salt_max             =   3.7475629659304E+01
(PID.TID 0000.0001) %MON dynstat_salt_min             =   2.9752769471420E+01
(PID.TID 0000.0001) %MON dynstat_salt_mean            =   3.4718001015839E+01
(PID.TID 0000.0001) %MON dynstat_salt_sd              =   2.9462524950605E-01
(PID.TID 0000.0001) %MON dynstat_salt_del2            =   1.0382303854229E-03
(PID.TID 0000.0001) %MON forcing_qnet_max             =   4.7889539846945E+02
(PID.TID 0000.0001) %MON forcing_qnet_min             =  -2.1234592141945E+02
(PID.TID 0000.0001) %MON forcing_qnet_mean            =  -1.5407959491527E+01
(PID.TID 0000.0001) %MON forcing_qnet_sd              =   1.1749008355619E+02
(PID.TID 0000.0001) %MON forcing_qnet_del2            =   7.6292848491878E-01
(PID.TID 0000.0001) %MON forcing_qsw_max              =   0.0000000000000E+00
(PID.TID 0000.0001) %MON forcing_qsw_min              =   0.0000000000000E+00
(PID.TID 0000.0001) %MON forcing_qsw_mean             =   0.0000000000000E+00
(PID.TID 0000.0001) %MON forcing_qsw_sd               =   0.0000000000000E+00
(PID.TID 0000.0001) %MON forcing_qsw_del2             =   0.0000000000000E+00
(PID.TID 0000.0001) %MON forcing_empmr_max            =   5.2302461935749E-05
(PID.TID 0000.0001) %MON forcing_empmr_min            =  -1.3705199332603E-04
(PID.TID 0000.0001) %MON forcing_empmr_mean           =   0.0000000000000E+00
(PID.TID 0000.0001) %MON forcing_empmr_sd             =   2.3550327612301E-05
(PID.TID 0000.0001) %MON forcing_empmr_del2           =   2.4956923451985E-07
(PID.TID 0000.0001) %MON forcing_fu_max               =   2.7877888530287E-01
(PID.TID 0000.0001) %MON forcing_fu_min               =  -1.7088057632071E-01
(PID.TID 0000.0001) %MON forcing_fu_mean              =   1.6077639705783E-02
(PID.TID 0000.0001) %MON forcing_fu_sd                =   9.1121692265396E-02
(PID.TID 0000.0001) %MON forcing_fu_del2              =   7.1645420756246E-04
(PID.TID 0000.0001) %MON forcing_fv_max               =   2.3312132027950E-01
(PID.TID 0000.0001) %MON forcing_fv_min               =  -1.7813690234636E-01
(PID.TID 0000.0001) %MON forcing_fv_mean              =  -5.2123713348980E-03
(PID.TID 0000.0001) %MON forcing_fv_sd                =   4.8244503985680E-02
(PID.TID 0000.0001) %MON forcing_fv_del2              =   4.8353727932034E-04
(PID.TID 0000.0001) %MON advcfl_uvel_max              =   0.0000000000000E+00
(PID.TID 0000.0001) %MON advcfl_vvel_max              =   0.0000000000000E+00
(PID.TID 0000.0001) %MON advcfl_wvel_max              =   0.0000000000000E+00
(PID.TID 0000.0001) %MON advcfl_W_hf_max              =   0.0000000000000E+00
(PID.TID 0000.0001) %MON pe_b_mean                    =   0.0000000000000E+00
(PID.TID 0000.0001) %MON ke_max                       =   0.0000000000000E+00
(PID.TID 0000.0001) %MON ke_mean                      =   0.0000000000000E+00
(PID.TID 0000.0001) %MON ke_vol                       =   1.3442141716554E+22
(PID.TID 0000.0001) %MON vort_r_min                   =   0.0000000000000E+00
(PID.TID 0000.0001) %MON vort_r_max                   =   0.0000000000000E+00
(PID.TID 0000.0001) %MON vort_a_mean                  =  -2.4531015880775E-05
(PID.TID 0000.0001) %MON vort_a_sd                    =   7.3436042941020E-05
(PID.TID 0000.0001) %MON vort_p_mean                  =  -2.9390264918859E-05
(PID.TID 0000.0001) %MON vort_p_sd                    =   1.0331963168452E-04
(PID.TID 0000.0001) %MON surfExpan_theta_mean         =   0.0000000000000E+00
(PID.TID 0000.0001) %MON surfExpan_salt_mean          =   0.0000000000000E+00
(PID.TID 0000.0001) // =======================================================
(PID.TID 0000.0001) // End MONITOR dynamic field statistics
(PID.TID 0000.0001) // =======================================================
S/R EXTERNAL_FIELDS_LOAD: Reading new data:   12    1         0  0.000000000000E+00
(PID.TID 0000.0001)  MDS_READ_FIELD: opening global file: trenberth_taux.bin
(PID.TID 0000.0001)  MDS_READ_FIELD: opening global file: trenberth_taux.bin
(PID.TID 0000.0001)  MDS_READ_FIELD: opening global file: trenberth_tauy.bin
(PID.TID 0000.0001)  MDS_READ_FIELD: opening global file: trenberth_tauy.bin
(PID.TID 0000.0001)  MDS_READ_FIELD: opening global file: shi_qnet.bin
(PID.TID 0000.0001)  MDS_READ_FIELD: opening global file: shi_qnet.bin
(PID.TID 0000.0001)  MDS_READ_FIELD: opening global file: shi_empmr.bin
(PID.TID 0000.0001)  MDS_READ_FIELD: opening global file: shi_empmr.bin
(PID.TID 0000.0001)  MDS_READ_FIELD: opening global file: lev_sst.bin
(PID.TID 0000.0001)  MDS_READ_FIELD: opening global file: lev_sst.bin
(PID.TID 0000.0001)  MDS_READ_FIELD: opening global file: deltageopotjmd95.bin
(PID.TID 0000.0001)  MDS_READ_FIELD: opening global file: deltageopotjmd95.bin
time,SST,SSS,fu,fv,Q,E-P,i0,i1,a,b =   0.0000E+00  2.4878E+01  0.0000E+00 -1.0994E-02  2.9853E-02 -8.6112E+01 -5.1099E-06    12     1  5.0000E-01  5.0000E-01
time,fu0,fu1,fu =   0.0000E+00 -1.3840E-02 -8.1474E-03 -1.0994E-02  5.000000000000000E-01  5.000000000000000E-01
(PID.TID 0000.0001) SOLVE_FOR_PRESSURE: putPmEinXvector =    F
 cg2d: Sum(rhs),rhsMax =  -6.10622663543836E-16  1.71163414373126E+02
(PID.TID 0000.0001)                    cg2d_init_res =    9.36692383621740E+00
(PID.TID 0000.0001)                       cg2d_iters =   107
(PID.TID 0000.0001)                         cg2d_res =    9.62519078670608E-10
(PID.TID 0000.0001) // =======================================================
(PID.TID 0000.0001) // Begin MONITOR dynamic field statistics
(PID.TID 0000.0001) // =======================================================
(PID.TID 0000.0001) %MON time_tsnumber                =                     1
(PID.TID 0000.0001) %MON time_secondsf                =   1.7280000000000E+05
(PID.TID 0000.0001) %MON dynstat_eta_max              =   4.1656786839423E+04
(PID.TID 0000.0001) %MON dynstat_eta_min              =  -8.8276374725145E+04
(PID.TID 0000.0001) %MON dynstat_eta_mean             =  -2.1939302981644E-13
(PID.TID 0000.0001) %MON dynstat_eta_sd               =   3.6901397170278E+04
(PID.TID 0000.0001) %MON dynstat_eta_del2             =   2.0856467227143E+03
(PID.TID 0000.0001) %MON dynstat_uvel_max             =   3.5106109517859E-02
(PID.TID 0000.0001) %MON dynstat_uvel_min             =  -3.5372108944508E-02
(PID.TID 0000.0001) %MON dynstat_uvel_mean            =  -8.4135916903908E-04
(PID.TID 0000.0001) %MON dynstat_uvel_sd              =   2.2143004930635E-03
(PID.TID 0000.0001) %MON dynstat_uvel_del2            =   2.3793586526361E-05
(PID.TID 0000.0001) %MON dynstat_vvel_max             =   3.5008782265621E-02
(PID.TID 0000.0001) %MON dynstat_vvel_min             =  -2.4496142225807E-02
(PID.TID 0000.0001) %MON dynstat_vvel_mean            =   1.0871733172810E-03
(PID.TID 0000.0001) %MON dynstat_vvel_sd              =   2.2887791274522E-03
(PID.TID 0000.0001) %MON dynstat_vvel_del2            =   2.5440556997751E-05
(PID.TID 0000.0001) %MON dynstat_wvel_max             =   5.0250051231517E-01
(PID.TID 0000.0001) %MON dynstat_wvel_min             =  -6.2689518742395E-01
(PID.TID 0000.0001) %MON dynstat_wvel_mean            =  -6.6716894910156E-03
(PID.TID 0000.0001) %MON dynstat_wvel_sd              =   1.5353611024476E-01
(PID.TID 0000.0001) %MON dynstat_wvel_del2            =   1.7671817735107E-03
(PID.TID 0000.0001) %MON dynstat_theta_max            =   2.9711296896544E+01
(PID.TID 0000.0001) %MON dynstat_theta_min            =  -2.6183665629211E+00
(PID.TID 0000.0001) %MON dynstat_theta_mean           =   3.6019879855479E+00
(PID.TID 0000.0001) %MON dynstat_theta_sd             =   4.4015171771318E+00
(PID.TID 0000.0001) %MON dynstat_theta_del2           =   5.7674232155852E-03
(PID.TID 0000.0001) %MON dynstat_salt_max             =   3.7478618521905E+01
(PID.TID 0000.0001) %MON dynstat_salt_min             =   2.9762213911218E+01
(PID.TID 0000.0001) %MON dynstat_salt_mean            =   3.4718001015839E+01
(PID.TID 0000.0001) %MON dynstat_salt_sd              =   2.9451022507208E-01
(PID.TID 0000.0001) %MON dynstat_salt_del2            =   1.0393012595704E-03
(PID.TID 0000.0001) %MON forcing_qnet_max             =   4.4145258709576E+02
(PID.TID 0000.0001) %MON forcing_qnet_min             =  -2.2440550854923E+02
(PID.TID 0000.0001) %MON forcing_qnet_mean            =  -1.5958423861174E+01
(PID.TID 0000.0001) %MON forcing_qnet_sd              =   1.1936714639352E+02
(PID.TID 0000.0001) %MON forcing_qnet_del2            =   6.9568601022103E-01
(PID.TID 0000.0001) %MON forcing_qsw_max              =   0.0000000000000E+00
(PID.TID 0000.0001) %MON forcing_qsw_min              =   0.0000000000000E+00
(PID.TID 0000.0001) %MON forcing_qsw_mean             =   0.0000000000000E+00
(PID.TID 0000.0001) %MON forcing_qsw_sd               =   0.0000000000000E+00
(PID.TID 0000.0001) %MON forcing_qsw_del2             =   0.0000000000000E+00
(PID.TID 0000.0001) %MON forcing_empmr_max            =   5.2302461935749E-05
(PID.TID 0000.0001) %MON forcing_empmr_min            =  -1.3705199332603E-04
(PID.TID 0000.0001) %MON forcing_empmr_mean           =   0.0000000000000E+00
(PID.TID 0000.0001) %MON forcing_empmr_sd             =   2.3550327612301E-05
(PID.TID 0000.0001) %MON forcing_empmr_del2           =   2.4956923451985E-07
(PID.TID 0000.0001) %MON forcing_fu_max               =   2.7488999084141E-01
(PID.TID 0000.0001) %MON forcing_fu_min               =  -1.6014088069750E-01
(PID.TID 0000.0001) %MON forcing_fu_mean              =   1.6225461269972E-02
(PID.TID 0000.0001) %MON forcing_fu_sd                =   9.0178097883684E-02
(PID.TID 0000.0001) %MON forcing_fu_del2              =   6.4160979257353E-04
(PID.TID 0000.0001) %MON forcing_fv_max               =   2.0835298033582E-01
(PID.TID 0000.0001) %MON forcing_fv_min               =  -1.8690676624267E-01
(PID.TID 0000.0001) %MON forcing_fv_mean              =  -6.3112500932584E-03
(PID.TID 0000.0001) %MON forcing_fv_sd                =   4.5147209559071E-02
(PID.TID 0000.0001) %MON forcing_fv_del2              =   4.3058787478848E-04
(PID.TID 0000.0001) %MON advcfl_uvel_max              =   2.1979552871283E-02
(PID.TID 0000.0001) %MON advcfl_vvel_max              =   1.3603289841692E-02
(PID.TID 0000.0001) %MON advcfl_wvel_max              =   4.1332940427638E-02
(PID.TID 0000.0001) %MON advcfl_W_hf_max              =   5.0201445983039E-02
(PID.TID 0000.0001) %MON pe_b_mean                    =  -6.4368668120800E-03
(PID.TID 0000.0001) %MON ke_max                       =   5.7521020041948E-04
(PID.TID 0000.0001) %MON ke_mean                      =   5.4208464415534E-06
(PID.TID 0000.0001) %MON ke_vol                       =   1.3442141716554E+22
(PID.TID 0000.0001) %MON vort_r_min                   =  -1.1936131053982E-07
(PID.TID 0000.0001) %MON vort_r_max                   =   1.5595297437961E-07
(PID.TID 0000.0001) %MON vort_a_mean                  =  -2.4531015891370E-05
(PID.TID 0000.0001) %MON vort_a_sd                    =   7.3435845881612E-05
(PID.TID 0000.0001) %MON vort_p_mean                  =  -2.9390264931553E-05
(PID.TID 0000.0001) %MON vort_p_sd                    =   1.0331909363522E-04
(PID.TID 0000.0001) %MON surfExpan_theta_mean         =   6.7339858775841E-02
(PID.TID 0000.0001) %MON surfExpan_salt_mean          =  -2.2611127517298E-04
(PID.TID 0000.0001) // =======================================================
(PID.TID 0000.0001) // End MONITOR dynamic field statistics
(PID.TID 0000.0001) // =======================================================
time,SST,SSS,fu,fv,Q,E-P,i0,i1,a,b =   1.7280E+05  2.5017E+01  0.0000E+00 -1.0614E-02  2.9071E-02 -8.6899E+01 -5.1099E-06    12     1  5.6667E-01  4.3333E-01
time,fu0,fu1,fu =   1.7280E+05 -1.3840E-02 -8.1474E-03 -1.0614E-02  5.666666666666667E-01  4.333333333333333E-01
 cg2d: Sum(rhs),rhsMax =   2.08166817117217E-16  1.74491039075476E+02
(PID.TID 0000.0001)                    cg2d_init_res =    2.47708253820962E-01
(PID.TID 0000.0001)                       cg2d_iters =   100
(PID.TID 0000.0001)                         cg2d_res =    8.69759642371396E-10
(PID.TID 0000.0001) // =======================================================
(PID.TID 0000.0001) // Begin MONITOR dynamic field statistics
(PID.TID 0000.0001) // =======================================================
(PID.TID 0000.0001) %MON time_tsnumber                =                     2
(PID.TID 0000.0001) %MON time_secondsf                =   3.4560000000000E+05
(PID.TID 0000.0001) %MON dynstat_eta_max              =   4.8800479054279E+04
(PID.TID 0000.0001) %MON dynstat_eta_min              =  -8.9518932390789E+04
(PID.TID 0000.0001) %MON dynstat_eta_mean             =   1.0969651490822E-12
(PID.TID 0000.0001) %MON dynstat_eta_sd               =   3.9643950021115E+04
(PID.TID 0000.0001) %MON dynstat_eta_del2             =   2.1458168289546E+03
(PID.TID 0000.0001) %MON dynstat_uvel_max             =   6.3598031054050E-02
(PID.TID 0000.0001) %MON dynstat_uvel_min             =  -4.0801690827365E-02
(PID.TID 0000.0001) %MON dynstat_uvel_mean            =  -1.1815780795749E-03
(PID.TID 0000.0001) %MON dynstat_uvel_sd              =   2.2777992684346E-03
(PID.TID 0000.0001) %MON dynstat_uvel_del2            =   2.7658807767190E-05
(PID.TID 0000.0001) %MON dynstat_vvel_max             =   5.2226156360700E-02
(PID.TID 0000.0001) %MON dynstat_vvel_min             =  -3.0725719488348E-02
(PID.TID 0000.0001) %MON dynstat_vvel_mean            =   1.5483293033052E-03
(PID.TID 0000.0001) %MON dynstat_vvel_sd              =   2.9965179257105E-03
(PID.TID 0000.0001) %MON dynstat_vvel_del2            =   3.2778990581369E-05
(PID.TID 0000.0001) %MON dynstat_wvel_max             =   6.3728698802107E-01
(PID.TID 0000.0001) %MON dynstat_wvel_min             =  -7.8831034039808E-01
(PID.TID 0000.0001) %MON dynstat_wvel_mean            =  -3.3031803503132E-03
(PID.TID 0000.0001) %MON dynstat_wvel_sd              =   8.9419601137566E-02
(PID.TID 0000.0001) %MON dynstat_wvel_del2            =   1.4685021323704E-03
(PID.TID 0000.0001) %MON dynstat_theta_max            =   2.9684508324331E+01
(PID.TID 0000.0001) %MON dynstat_theta_min            =  -2.6127577628499E+00
(PID.TID 0000.0001) %MON dynstat_theta_mean           =   3.6019390324702E+00
(PID.TID 0000.0001) %MON dynstat_theta_sd             =   4.4012378366346E+00
(PID.TID 0000.0001) %MON dynstat_theta_del2           =   5.7347089099336E-03
(PID.TID 0000.0001) %MON dynstat_salt_max             =   3.7481694830700E+01
(PID.TID 0000.0001) %MON dynstat_salt_min             =   2.9765601978475E+01
(PID.TID 0000.0001) %MON dynstat_salt_mean            =   3.4718001573509E+01
(PID.TID 0000.0001) %MON dynstat_salt_sd              =   2.9441685806753E-01
(PID.TID 0000.0001) %MON dynstat_salt_del2            =   1.0443782643402E-03
(PID.TID 0000.0001) %MON forcing_qnet_max             =   4.4097305510790E+02
(PID.TID 0000.0001) %MON forcing_qnet_min             =  -2.2101759470857E+02
(PID.TID 0000.0001) %MON forcing_qnet_mean            =  -1.5885028611888E+01
(PID.TID 0000.0001) %MON forcing_qnet_sd              =   1.1890885874093E+02
(PID.TID 0000.0001) %MON forcing_qnet_del2            =   6.9758199760840E-01
(PID.TID 0000.0001) %MON forcing_qsw_max              =   0.0000000000000E+00
(PID.TID 0000.0001) %MON forcing_qsw_min              =   0.0000000000000E+00
(PID.TID 0000.0001) %MON forcing_qsw_mean             =   0.0000000000000E+00
(PID.TID 0000.0001) %MON forcing_qsw_sd               =   0.0000000000000E+00
(PID.TID 0000.0001) %MON forcing_qsw_del2             =   0.0000000000000E+00
(PID.TID 0000.0001) %MON forcing_empmr_max            =   5.2302461935749E-05
(PID.TID 0000.0001) %MON forcing_empmr_min            =  -1.3705199332603E-04
(PID.TID 0000.0001) %MON forcing_empmr_mean           =   0.0000000000000E+00
(PID.TID 0000.0001) %MON forcing_empmr_sd             =   2.3550327612301E-05
(PID.TID 0000.0001) %MON forcing_empmr_del2           =   2.4956923451985E-07
(PID.TID 0000.0001) %MON forcing_fu_max               =   2.7317289557073E-01
(PID.TID 0000.0001) %MON forcing_fu_min               =  -1.6030611397112E-01
(PID.TID 0000.0001) %MON forcing_fu_mean              =   1.6205751728080E-02
(PID.TID 0000.0001) %MON forcing_fu_sd                =   9.0163314984710E-02
(PID.TID 0000.0001) %MON forcing_fu_del2              =   6.4499680240129E-04
(PID.TID 0000.0001) %MON forcing_fv_max               =   2.0930016589587E-01
(PID.TID 0000.0001) %MON forcing_fv_min               =  -1.8573745105650E-01
(PID.TID 0000.0001) %MON forcing_fv_mean              =  -6.1647329254770E-03
(PID.TID 0000.0001) %MON forcing_fv_sd                =   4.5369550755658E-02
(PID.TID 0000.0001) %MON forcing_fv_del2              =   4.3066747124620E-04
(PID.TID 0000.0001) %MON advcfl_uvel_max              =   3.3770369818651E-02
(PID.TID 0000.0001) %MON advcfl_vvel_max              =   2.0293409148076E-02
(PID.TID 0000.0001) %MON advcfl_wvel_max              =   5.3361879702353E-02
(PID.TID 0000.0001) %MON advcfl_W_hf_max              =   6.4811346439798E-02
(PID.TID 0000.0001) %MON pe_b_mean                    =  -7.1799587298413E-03
(PID.TID 0000.0001) %MON ke_max                       =   1.7096848449960E-03
(PID.TID 0000.0001) %MON ke_mean                      =   8.0815105316531E-06
(PID.TID 0000.0001) %MON ke_vol                       =   1.3442141716554E+22
(PID.TID 0000.0001) %MON vort_r_min                   =  -1.7585777744653E-07
(PID.TID 0000.0001) %MON vort_r_max                   =   1.8514022070587E-07
(PID.TID 0000.0001) %MON vort_a_mean                  =  -2.4531016005675E-05
(PID.TID 0000.0001) %MON vort_a_sd                    =   7.3435759250337E-05
(PID.TID 0000.0001) %MON vort_p_mean                  =  -2.9399877546210E-05
(PID.TID 0000.0001) %MON vort_p_sd                    =   1.0336783847560E-04
(PID.TID 0000.0001) %MON surfExpan_theta_mean         =   3.6682182734868E-02
(PID.TID 0000.0001) %MON surfExpan_salt_mean          =  -9.6825529793831E-05
(PID.TID 0000.0001) // =======================================================
(PID.TID 0000.0001) // End MONITOR dynamic field statistics
(PID.TID 0000.0001) // =======================================================
time,SST,SSS,fu,fv,Q,E-P,i0,i1,a,b =   3.4560E+05  2.5157E+01  0.0000E+00 -1.0235E-02  2.8288E-02 -8.7685E+01 -5.1099E-06    12     1  6.3333E-01  3.6667E-01
time,fu0,fu1,fu =   3.4560E+05 -1.3840E-02 -8.1474E-03 -1.0235E-02  6.333333333333333E-01  3.666666666666667E-01
 cg2d: Sum(rhs),rhsMax =   2.55351295663786E-15  1.72945906101710E+02
(PID.TID 0000.0001)                    cg2d_init_res =    1.06015478035090E-01
(PID.TID 0000.0001)                       cg2d_iters =    99
(PID.TID 0000.0001)                         cg2d_res =    8.15265275687247E-10
(PID.TID 0000.0001) // =======================================================
(PID.TID 0000.0001) // Begin MONITOR dynamic field statistics
(PID.TID 0000.0001) // =======================================================
(PID.TID 0000.0001) %MON time_tsnumber                =                     3
(PID.TID 0000.0001) %MON time_secondsf                =   5.1840000000000E+05
(PID.TID 0000.0001) %MON dynstat_eta_max              =   5.1296360021763E+04
(PID.TID 0000.0001) %MON dynstat_eta_min              =  -9.1295320737472E+04
(PID.TID 0000.0001) %MON dynstat_eta_mean             =   2.1939302981644E-12
(PID.TID 0000.0001) %MON dynstat_eta_sd               =   3.9696765975133E+04
(PID.TID 0000.0001) %MON dynstat_eta_del2             =   2.1204178572370E+03
(PID.TID 0000.0001) %MON dynstat_uvel_max             =   7.1924371062036E-02
(PID.TID 0000.0001) %MON dynstat_uvel_min             =  -5.2023454784447E-02
(PID.TID 0000.0001) %MON dynstat_uvel_mean            =  -1.1613483955861E-03
(PID.TID 0000.0001) %MON dynstat_uvel_sd              =   2.7063339810519E-03
(PID.TID 0000.0001) %MON dynstat_uvel_del2            =   3.6727146536500E-05
(PID.TID 0000.0001) %MON dynstat_vvel_max             =   5.4064686321715E-02
(PID.TID 0000.0001) %MON dynstat_vvel_min             =  -4.5578802708669E-02
(PID.TID 0000.0001) %MON dynstat_vvel_mean            =   1.5246854673338E-03
(PID.TID 0000.0001) %MON dynstat_vvel_sd              =   4.1661853866549E-03
(PID.TID 0000.0001) %MON dynstat_vvel_del2            =   4.5412074440008E-05
(PID.TID 0000.0001) %MON dynstat_wvel_max             =   8.8864351443885E-01
(PID.TID 0000.0001) %MON dynstat_wvel_min             =  -1.0818429017211E+00
(PID.TID 0000.0001) %MON dynstat_wvel_mean            =  -1.5497007325015E-03
(PID.TID 0000.0001) %MON dynstat_wvel_sd              =   1.2224114111922E-01
(PID.TID 0000.0001) %MON dynstat_wvel_del2            =   1.9792395809218E-03
(PID.TID 0000.0001) %MON dynstat_theta_max            =   2.9669473527585E+01
(PID.TID 0000.0001) %MON dynstat_theta_min            =  -2.6038558037965E+00
(PID.TID 0000.0001) %MON dynstat_theta_mean           =   3.6021516586258E+00
(PID.TID 0000.0001) %MON dynstat_theta_sd             =   4.4012396819041E+00
(PID.TID 0000.0001) %MON dynstat_theta_del2           =   5.6506061441576E-03
(PID.TID 0000.0001) %MON dynstat_salt_max             =   3.7435159987254E+01
(PID.TID 0000.0001) %MON dynstat_salt_min             =   2.9770613179846E+01
(PID.TID 0000.0001) %MON dynstat_salt_mean            =   3.4718001226360E+01
(PID.TID 0000.0001) %MON dynstat_salt_sd              =   2.9442255249274E-01
(PID.TID 0000.0001) %MON dynstat_salt_del2            =   1.0402811599443E-03
(PID.TID 0000.0001) %MON forcing_qnet_max             =   4.4049352312003E+02
(PID.TID 0000.0001) %MON forcing_qnet_min             =  -2.1762968086790E+02
(PID.TID 0000.0001) %MON forcing_qnet_mean            =  -1.5811633362602E+01
(PID.TID 0000.0001) %MON forcing_qnet_sd              =   1.1851361770403E+02
(PID.TID 0000.0001) %MON forcing_qnet_del2            =   7.0176440912652E-01
(PID.TID 0000.0001) %MON forcing_qsw_max              =   0.0000000000000E+00
(PID.TID 0000.0001) %MON forcing_qsw_min              =   0.0000000000000E+00
(PID.TID 0000.0001) %MON forcing_qsw_mean             =   0.0000000000000E+00
(PID.TID 0000.0001) %MON forcing_qsw_sd               =   0.0000000000000E+00
(PID.TID 0000.0001) %MON forcing_qsw_del2             =   0.0000000000000E+00
(PID.TID 0000.0001) %MON forcing_empmr_max            =   5.2302461935749E-05
(PID.TID 0000.0001) %MON forcing_empmr_min            =  -1.3705199332603E-04
(PID.TID 0000.0001) %MON forcing_empmr_mean           =   0.0000000000000E+00
(PID.TID 0000.0001) %MON forcing_empmr_sd             =   2.3550327612301E-05
(PID.TID 0000.0001) %MON forcing_empmr_del2           =   2.4956923451985E-07
(PID.TID 0000.0001) %MON forcing_fu_max               =   2.7145580030005E-01
(PID.TID 0000.0001) %MON forcing_fu_min               =  -1.6193295433260E-01
(PID.TID 0000.0001) %MON forcing_fu_mean              =   1.6186042186188E-02
(PID.TID 0000.0001) %MON forcing_fu_sd                =   9.0191995746640E-02
(PID.TID 0000.0001) %MON forcing_fu_del2              =   6.5054420938253E-04
(PID.TID 0000.0001) %MON forcing_fv_max               =   2.1244236100063E-01
(PID.TID 0000.0001) %MON forcing_fv_min               =  -1.8456813587032E-01
(PID.TID 0000.0001) %MON forcing_fv_mean              =  -6.0182157576956E-03
(PID.TID 0000.0001) %MON forcing_fv_sd                =   4.5652999799994E-02
(PID.TID 0000.0001) %MON forcing_fv_del2              =   4.3302155748244E-04
(PID.TID 0000.0001) %MON advcfl_uvel_max              =   4.2056470606626E-02
(PID.TID 0000.0001) %MON advcfl_vvel_max              =   2.1007802917975E-02
(PID.TID 0000.0001) %MON advcfl_wvel_max              =   6.7813457578631E-02
(PID.TID 0000.0001) %MON advcfl_W_hf_max              =   7.9957450046873E-02
(PID.TID 0000.0001) %MON pe_b_mean                    =  -8.1523582884209E-03
(PID.TID 0000.0001) %MON ke_max                       =   2.0295722136179E-03
(PID.TID 0000.0001) %MON ke_mean                      =   1.2749956641294E-05
(PID.TID 0000.0001) %MON ke_vol                       =   1.3442141716554E+22
(PID.TID 0000.0001) %MON vort_r_min                   =  -2.0964887608589E-07
(PID.TID 0000.0001) %MON vort_r_max                   =   2.3824267044600E-07
(PID.TID 0000.0001) %MON vort_a_mean                  =  -2.4531016156342E-05
(PID.TID 0000.0001) %MON vort_a_sd                    =   7.3435757779196E-05
(PID.TID 0000.0001) %MON vort_p_mean                  =  -2.9400606296370E-05
(PID.TID 0000.0001) %MON vort_p_sd                    =   1.0337416768695E-04
(PID.TID 0000.0001) %MON surfExpan_theta_mean         =   1.7624891187700E-02
(PID.TID 0000.0001) %MON surfExpan_salt_mean          =  -2.8914006662752E-04
(PID.TID 0000.0001) // =======================================================
(PID.TID 0000.0001) // End MONITOR dynamic field statistics
(PID.TID 0000.0001) // =======================================================
time,SST,SSS,fu,fv,Q,E-P,i0,i1,a,b =   5.1840E+05  2.5296E+01  0.0000E+00 -9.8553E-03  2.7506E-02 -8.8472E+01 -5.1099E-06    12     1  7.0000E-01  3.0000E-01
time,fu0,fu1,fu =   5.1840E+05 -1.3840E-02 -8.1474E-03 -9.8553E-03  7.000000000000000E-01  3.000000000000000E-01
 cg2d: Sum(rhs),rhsMax =  -2.35922392732846E-15  1.72905598704056E+02
(PID.TID 0000.0001)                    cg2d_init_res =    8.88319695302429E-03
(PID.TID 0000.0001)                       cg2d_iters =    91
(PID.TID 0000.0001)                         cg2d_res =    9.16099079858183E-10
(PID.TID 0000.0001) // =======================================================
(PID.TID 0000.0001) // Begin MONITOR dynamic field statistics
(PID.TID 0000.0001) // =======================================================
(PID.TID 0000.0001) %MON time_tsnumber                =                     4
(PID.TID 0000.0001) %MON time_secondsf                =   6.9120000000000E+05
(PID.TID 0000.0001) %MON dynstat_eta_max              =   5.1017017580067E+04
(PID.TID 0000.0001) %MON dynstat_eta_min              =  -9.2901708383832E+04
(PID.TID 0000.0001) %MON dynstat_eta_mean             =   1.1408437550455E-11
(PID.TID 0000.0001) %MON dynstat_eta_sd               =   4.0207161942474E+04
(PID.TID 0000.0001) %MON dynstat_eta_del2             =   2.1191537625842E+03
(PID.TID 0000.0001) %MON dynstat_uvel_max             =   6.1546981254065E-02
(PID.TID 0000.0001) %MON dynstat_uvel_min             =  -7.8226940985111E-02
(PID.TID 0000.0001) %MON dynstat_uvel_mean            =  -8.8759735144178E-04
(PID.TID 0000.0001) %MON dynstat_uvel_sd              =   3.1025455638273E-03
(PID.TID 0000.0001) %MON dynstat_uvel_del2            =   4.4760320503856E-05
(PID.TID 0000.0001) %MON dynstat_vvel_max             =   5.0484433921258E-02
(PID.TID 0000.0001) %MON dynstat_vvel_min             =  -5.9548160749223E-02
(PID.TID 0000.0001) %MON dynstat_vvel_mean            =   1.2053113291163E-03
(PID.TID 0000.0001) %MON dynstat_vvel_sd              =   5.2714306947387E-03
(PID.TID 0000.0001) %MON dynstat_vvel_del2            =   5.7636300899147E-05
(PID.TID 0000.0001) %MON dynstat_wvel_max             =   1.1534923787229E+00
(PID.TID 0000.0001) %MON dynstat_wvel_min             =  -1.3278307361351E+00
(PID.TID 0000.0001) %MON dynstat_wvel_mean            =  -9.7444532196982E-04
(PID.TID 0000.0001) %MON dynstat_wvel_sd              =   1.4928540533904E-01
(PID.TID 0000.0001) %MON dynstat_wvel_del2            =   2.3643024228175E-03
(PID.TID 0000.0001) %MON dynstat_theta_max            =   2.9657559087479E+01
(PID.TID 0000.0001) %MON dynstat_theta_min            =  -2.5955256100374E+00
(PID.TID 0000.0001) %MON dynstat_theta_mean           =   3.6023339525722E+00
(PID.TID 0000.0001) %MON dynstat_theta_sd             =   4.4012721962854E+00
(PID.TID 0000.0001) %MON dynstat_theta_del2           =   5.5544611649165E-03
(PID.TID 0000.0001) %MON dynstat_salt_max             =   3.7435136750230E+01
(PID.TID 0000.0001) %MON dynstat_salt_min             =   2.9775227802091E+01
(PID.TID 0000.0001) %MON dynstat_salt_mean            =   3.4718001734616E+01
(PID.TID 0000.0001) %MON dynstat_salt_sd              =   2.9441625233683E-01
(PID.TID 0000.0001) %MON dynstat_salt_del2            =   1.0350594810049E-03
(PID.TID 0000.0001) %MON forcing_qnet_max             =   4.4001399113216E+02
(PID.TID 0000.0001) %MON forcing_qnet_min             =  -2.1424176702723E+02
(PID.TID 0000.0001) %MON forcing_qnet_mean            =  -1.5738238113315E+01
(PID.TID 0000.0001) %MON forcing_qnet_sd              =   1.1818205583255E+02
(PID.TID 0000.0001) %MON forcing_qnet_del2            =   7.0819273676404E-01
(PID.TID 0000.0001) %MON forcing_qsw_max              =   0.0000000000000E+00
(PID.TID 0000.0001) %MON forcing_qsw_min              =   0.0000000000000E+00
(PID.TID 0000.0001) %MON forcing_qsw_mean             =   0.0000000000000E+00
(PID.TID 0000.0001) %MON forcing_qsw_sd               =   0.0000000000000E+00
(PID.TID 0000.0001) %MON forcing_qsw_del2             =   0.0000000000000E+00
(PID.TID 0000.0001) %MON forcing_empmr_max            =   5.2302461935749E-05
(PID.TID 0000.0001) %MON forcing_empmr_min            =  -1.3705199332603E-04
(PID.TID 0000.0001) %MON forcing_empmr_mean           =   2.0432568138134E-22
(PID.TID 0000.0001) %MON forcing_empmr_sd             =   2.3550327612301E-05
(PID.TID 0000.0001) %MON forcing_empmr_del2           =   2.4956923451985E-07
(PID.TID 0000.0001) %MON forcing_fu_max               =   2.6977392188535E-01
(PID.TID 0000.0001) %MON forcing_fu_min               =  -1.6355979469407E-01
(PID.TID 0000.0001) %MON forcing_fu_mean              =   1.6166332644296E-02
(PID.TID 0000.0001) %MON forcing_fu_sd                =   9.0264098738697E-02
(PID.TID 0000.0001) %MON forcing_fu_del2              =   6.5819739112670E-04
(PID.TID 0000.0001) %MON forcing_fv_max               =   2.1620217177861E-01
(PID.TID 0000.0001) %MON forcing_fv_min               =  -1.8339882068415E-01
(PID.TID 0000.0001) %MON forcing_fv_mean              =  -5.8716985899142E-03
(PID.TID 0000.0001) %MON forcing_fv_sd                =   4.5996426990309E-02
(PID.TID 0000.0001) %MON forcing_fv_del2              =   4.3761342904399E-04
(PID.TID 0000.0001) %MON advcfl_uvel_max              =   4.9477943776068E-02
(PID.TID 0000.0001) %MON advcfl_vvel_max              =   2.3138505191792E-02
(PID.TID 0000.0001) %MON advcfl_wvel_max              =   8.2187739921804E-02
(PID.TID 0000.0001) %MON advcfl_W_hf_max              =   9.6895324349334E-02
(PID.TID 0000.0001) %MON pe_b_mean                    =  -8.3973330431131E-03
(PID.TID 0000.0001) %MON ke_max                       =   2.4159998978777E-03
(PID.TID 0000.0001) %MON ke_mean                      =   1.7822985943748E-05
(PID.TID 0000.0001) %MON ke_vol                       =   1.3442141716554E+22
(PID.TID 0000.0001) %MON vort_r_min                   =  -2.2392447645522E-07
(PID.TID 0000.0001) %MON vort_r_max                   =   2.8413877521457E-07
(PID.TID 0000.0001) %MON vort_a_mean                  =  -2.4531016293602E-05
(PID.TID 0000.0001) %MON vort_a_sd                    =   7.3435817999251E-05
(PID.TID 0000.0001) %MON vort_p_mean                  =  -2.9400708509809E-05
(PID.TID 0000.0001) %MON vort_p_sd                    =   1.0337649673978E-04
(PID.TID 0000.0001) %MON surfExpan_theta_mean         =   1.0062986986431E-02
(PID.TID 0000.0001) %MON surfExpan_salt_mean          =  -2.3706655795907E-04
(PID.TID 0000.0001) // =======================================================
(PID.TID 0000.0001) // End MONITOR dynamic field statistics
(PID.TID 0000.0001) // =======================================================
time,SST,SSS,fu,fv,Q,E-P,i0,i1,a,b =   6.9120E+05  2.5436E+01  0.0000E+00 -9.4758E-03  2.6723E-02 -8.9259E+01 -5.1099E-06    12     1  7.6667E-01  2.3333E-01
time,fu0,fu1,fu =   6.9120E+05 -1.3840E-02 -8.1474E-03 -9.4758E-03  7.666666666666667E-01  2.333333333333333E-01
 cg2d: Sum(rhs),rhsMax =  -1.77635683940025E-15  1.72918666825917E+02
(PID.TID 0000.0001)                    cg2d_init_res =    4.68681290262119E-03
(PID.TID 0000.0001)                       cg2d_iters =    94
(PID.TID 0000.0001)                         cg2d_res =    9.71918328583303E-10
(PID.TID 0000.0001) // =======================================================
(PID.TID 0000.0001) // Begin MONITOR dynamic field statistics
(PID.TID 0000.0001) // =======================================================
(PID.TID 0000.0001) %MON time_tsnumber                =                     5
(PID.TID 0000.0001) %MON time_secondsf                =   8.6400000000000E+05
(PID.TID 0000.0001) %MON dynstat_eta_max              =   5.8776666635923E+04
(PID.TID 0000.0001) %MON dynstat_eta_min              =  -9.4342853760702E+04
(PID.TID 0000.0001) %MON dynstat_eta_mean             =  -5.2654327155946E-12
(PID.TID 0000.0001) %MON dynstat_eta_sd               =   4.0652997321492E+04
(PID.TID 0000.0001) %MON dynstat_eta_del2             =   2.1193064304778E+03
(PID.TID 0000.0001) %MON dynstat_uvel_max             =   5.9698235952497E-02
(PID.TID 0000.0001) %MON dynstat_uvel_min             =  -9.1858966625408E-02
(PID.TID 0000.0001) %MON dynstat_uvel_mean            =  -4.7316303530432E-04
(PID.TID 0000.0001) %MON dynstat_uvel_sd              =   3.5780558846462E-03
(PID.TID 0000.0001) %MON dynstat_uvel_del2            =   5.1897750943931E-05
(PID.TID 0000.0001) %MON dynstat_vvel_max             =   6.0261607482768E-02
(PID.TID 0000.0001) %MON dynstat_vvel_min             =  -7.2328671958034E-02
(PID.TID 0000.0001) %MON dynstat_vvel_mean            =   7.4641508127661E-04
(PID.TID 0000.0001) %MON dynstat_vvel_sd              =   6.3125095986938E-03
(PID.TID 0000.0001) %MON dynstat_vvel_del2            =   6.8994563635550E-05
(PID.TID 0000.0001) %MON dynstat_wvel_max             =   1.4020815028865E+00
(PID.TID 0000.0001) %MON dynstat_wvel_min             =  -1.5220739973272E+00
(PID.TID 0000.0001) %MON dynstat_wvel_mean            =  -6.8508028323103E-04
(PID.TID 0000.0001) %MON dynstat_wvel_sd              =   1.7381131942253E-01
(PID.TID 0000.0001) %MON dynstat_wvel_del2            =   2.6984910662773E-03
(PID.TID 0000.0001) %MON dynstat_theta_max            =   2.9654557715835E+01
(PID.TID 0000.0001) %MON dynstat_theta_min            =  -2.5873090678976E+00
(PID.TID 0000.0001) %MON dynstat_theta_mean           =   3.6024842824157E+00
(PID.TID 0000.0001) %MON dynstat_theta_sd             =   4.4013190961803E+00
(PID.TID 0000.0001) %MON dynstat_theta_del2           =   5.4518355510654E-03
(PID.TID 0000.0001) %MON dynstat_salt_max             =   3.7435037085068E+01
(PID.TID 0000.0001) %MON dynstat_salt_min             =   2.9777929262193E+01
(PID.TID 0000.0001) %MON dynstat_salt_mean            =   3.4718001594364E+01
(PID.TID 0000.0001) %MON dynstat_salt_sd              =   2.9441817480795E-01
(PID.TID 0000.0001) %MON dynstat_salt_del2            =   1.0316956643377E-03
(PID.TID 0000.0001) %MON forcing_qnet_max             =   4.3953445914429E+02
(PID.TID 0000.0001) %MON forcing_qnet_min             =  -2.1304556232427E+02
(PID.TID 0000.0001) %MON forcing_qnet_mean            =  -1.5664842864029E+01
(PID.TID 0000.0001) %MON forcing_qnet_sd              =   1.1791471030201E+02
(PID.TID 0000.0001) %MON forcing_qnet_del2            =   7.1680655887993E-01
(PID.TID 0000.0001) %MON forcing_qsw_max              =   0.0000000000000E+00
(PID.TID 0000.0001) %MON forcing_qsw_min              =   0.0000000000000E+00
(PID.TID 0000.0001) %MON forcing_qsw_mean             =   0.0000000000000E+00
(PID.TID 0000.0001) %MON forcing_qsw_sd               =   0.0000000000000E+00
(PID.TID 0000.0001) %MON forcing_qsw_del2             =   0.0000000000000E+00
(PID.TID 0000.0001) %MON forcing_empmr_max            =   5.2302461935749E-05
(PID.TID 0000.0001) %MON forcing_empmr_min            =  -1.3705199332603E-04
(PID.TID 0000.0001) %MON forcing_empmr_mean           =   2.0432568138134E-22
(PID.TID 0000.0001) %MON forcing_empmr_sd             =   2.3550327612301E-05
(PID.TID 0000.0001) %MON forcing_empmr_del2           =   2.4956923451985E-07
(PID.TID 0000.0001) %MON forcing_fu_max               =   2.6993649979941E-01
(PID.TID 0000.0001) %MON forcing_fu_min               =  -1.6518663505555E-01
(PID.TID 0000.0001) %MON forcing_fu_mean              =   1.6146623102404E-02
(PID.TID 0000.0001) %MON forcing_fu_sd                =   9.0379520036752E-02
(PID.TID 0000.0001) %MON forcing_fu_del2              =   6.6788396228870E-04
(PID.TID 0000.0001) %MON forcing_fv_max               =   2.1996198255658E-01
(PID.TID 0000.0001) %MON forcing_fv_min               =  -1.8222950549797E-01
(PID.TID 0000.0001) %MON forcing_fv_mean              =  -5.7251814221328E-03
(PID.TID 0000.0001) %MON forcing_fv_sd                =   4.6398500527278E-02
(PID.TID 0000.0001) %MON forcing_fv_del2              =   4.4437371985182E-04
(PID.TID 0000.0001) %MON advcfl_uvel_max              =   5.3919372991981E-02
(PID.TID 0000.0001) %MON advcfl_vvel_max              =   2.8104601898023E-02
(PID.TID 0000.0001) %MON advcfl_wvel_max              =   9.5633641267262E-02
(PID.TID 0000.0001) %MON advcfl_W_hf_max              =   1.0866872872797E-01
(PID.TID 0000.0001) %MON pe_b_mean                    =  -8.4398858497676E-03
(PID.TID 0000.0001) %MON ke_max                       =   3.6320679648077E-03
(PID.TID 0000.0001) %MON ke_mean                      =   2.4010398665710E-05
(PID.TID 0000.0001) %MON ke_vol                       =   1.3442141716554E+22
(PID.TID 0000.0001) %MON vort_r_min                   =  -2.5872116442298E-07
(PID.TID 0000.0001) %MON vort_r_max                   =   3.0050894675495E-07
(PID.TID 0000.0001) %MON vort_a_mean                  =  -2.4531016372736E-05
(PID.TID 0000.0001) %MON vort_a_sd                    =   7.3435913030988E-05
(PID.TID 0000.0001) %MON vort_p_mean                  =  -2.9400840462445E-05
(PID.TID 0000.0001) %MON vort_p_sd                    =   1.0337803034936E-04
(PID.TID 0000.0001) %MON surfExpan_theta_mean         =   6.0160570510580E-03
(PID.TID 0000.0001) %MON surfExpan_salt_mean          =  -1.1539095555715E-04
(PID.TID 0000.0001) // =======================================================
(PID.TID 0000.0001) // End MONITOR dynamic field statistics
(PID.TID 0000.0001) // =======================================================
time,SST,SSS,fu,fv,Q,E-P,i0,i1,a,b =   8.6400E+05  2.5575E+01  0.0000E+00 -9.0962E-03  2.5941E-02 -9.0046E+01 -5.1099E-06    12     1  8.3333E-01  1.6667E-01
time,fu0,fu1,fu =   8.6400E+05 -1.3840E-02 -8.1474E-03 -9.0962E-03  8.333333333333334E-01  1.666666666666666E-01
 cg2d: Sum(rhs),rhsMax =  -7.77156117237610E-16  1.72928002626637E+02
(PID.TID 0000.0001)                    cg2d_init_res =    3.45144425482659E-03
(PID.TID 0000.0001)                       cg2d_iters =    91
(PID.TID 0000.0001)                         cg2d_res =    9.79045665303174E-10
(PID.TID 0000.0001) // =======================================================
(PID.TID 0000.0001) // Begin MONITOR dynamic field statistics
(PID.TID 0000.0001) // =======================================================
(PID.TID 0000.0001) %MON time_tsnumber                =                     6
(PID.TID 0000.0001) %MON time_secondsf                =   1.0368000000000E+06
(PID.TID 0000.0001) %MON dynstat_eta_max              =   6.2212529037854E+04
(PID.TID 0000.0001) %MON dynstat_eta_min              =  -9.5072865742908E+04
(PID.TID 0000.0001) %MON dynstat_eta_mean             =   1.0530865431189E-11
(PID.TID 0000.0001) %MON dynstat_eta_sd               =   4.0801286458256E+04
(PID.TID 0000.0001) %MON dynstat_eta_del2             =   2.1193956182210E+03
(PID.TID 0000.0001) %MON dynstat_uvel_max             =   7.4168036344445E-02
(PID.TID 0000.0001) %MON dynstat_uvel_min             =  -9.0269481699941E-02
(PID.TID 0000.0001) %MON dynstat_uvel_mean            =  -3.8776950565704E-05
(PID.TID 0000.0001) %MON dynstat_uvel_sd              =   4.2139395389619E-03
(PID.TID 0000.0001) %MON dynstat_uvel_del2            =   5.8197088215094E-05
(PID.TID 0000.0001) %MON dynstat_vvel_max             =   6.8597299399136E-02
(PID.TID 0000.0001) %MON dynstat_vvel_min             =  -8.3538965292850E-02
(PID.TID 0000.0001) %MON dynstat_vvel_mean            =   2.7830083443784E-04
(PID.TID 0000.0001) %MON dynstat_vvel_sd              =   7.2909659556123E-03
(PID.TID 0000.0001) %MON dynstat_vvel_del2            =   7.9271204330245E-05
(PID.TID 0000.0001) %MON dynstat_wvel_max             =   1.6177923201538E+00
(PID.TID 0000.0001) %MON dynstat_wvel_min             =  -1.6533419408934E+00
(PID.TID 0000.0001) %MON dynstat_wvel_mean            =  -3.9190120081572E-04
(PID.TID 0000.0001) %MON dynstat_wvel_sd              =   1.9514463781658E-01
(PID.TID 0000.0001) %MON dynstat_wvel_del2            =   2.9668641555658E-03
(PID.TID 0000.0001) %MON dynstat_theta_max            =   2.9698006984420E+01
(PID.TID 0000.0001) %MON dynstat_theta_min            =  -2.5802614791890E+00
(PID.TID 0000.0001) %MON dynstat_theta_mean           =   3.6026224985855E+00
(PID.TID 0000.0001) %MON dynstat_theta_sd             =   4.4013857876830E+00
(PID.TID 0000.0001) %MON dynstat_theta_del2           =   5.3470815866839E-03
(PID.TID 0000.0001) %MON dynstat_salt_max             =   3.7434855502685E+01
(PID.TID 0000.0001) %MON dynstat_salt_min             =   2.9779048355485E+01
(PID.TID 0000.0001) %MON dynstat_salt_mean            =   3.4718001268642E+01
(PID.TID 0000.0001) %MON dynstat_salt_sd              =   2.9441940746653E-01
(PID.TID 0000.0001) %MON dynstat_salt_del2            =   1.0276156353117E-03
(PID.TID 0000.0001) %MON forcing_qnet_max             =   4.4037724209196E+02
(PID.TID 0000.0001) %MON forcing_qnet_min             =  -2.1284566492290E+02
(PID.TID 0000.0001) %MON forcing_qnet_mean            =  -1.5591447614743E+01
(PID.TID 0000.0001) %MON forcing_qnet_sd              =   1.1771201865440E+02
(PID.TID 0000.0001) %MON forcing_qnet_del2            =   7.2752825186415E-01
(PID.TID 0000.0001) %MON forcing_qsw_max              =   0.0000000000000E+00
(PID.TID 0000.0001) %MON forcing_qsw_min              =   0.0000000000000E+00
(PID.TID 0000.0001) %MON forcing_qsw_mean             =   0.0000000000000E+00
(PID.TID 0000.0001) %MON forcing_qsw_sd               =   0.0000000000000E+00
(PID.TID 0000.0001) %MON forcing_qsw_del2             =   0.0000000000000E+00
(PID.TID 0000.0001) %MON forcing_empmr_max            =   5.2302461935749E-05
(PID.TID 0000.0001) %MON forcing_empmr_min            =  -1.3705199332603E-04
(PID.TID 0000.0001) %MON forcing_empmr_mean           =   2.0432568138134E-22
(PID.TID 0000.0001) %MON forcing_empmr_sd             =   2.3550327612301E-05
(PID.TID 0000.0001) %MON forcing_empmr_del2           =   2.4956923451985E-07
(PID.TID 0000.0001) %MON forcing_fu_max               =   2.7009907771346E-01
(PID.TID 0000.0001) %MON forcing_fu_min               =  -1.6681347541702E-01
(PID.TID 0000.0001) %MON forcing_fu_mean              =   1.6126913560513E-02
(PID.TID 0000.0001) %MON forcing_fu_sd                =   9.0538093969639E-02
(PID.TID 0000.0001) %MON forcing_fu_del2              =   6.7951697002394E-04
(PID.TID 0000.0001) %MON forcing_fv_max               =   2.2372179333456E-01
(PID.TID 0000.0001) %MON forcing_fv_min               =  -1.8106019031180E-01
(PID.TID 0000.0001) %MON forcing_fv_mean              =  -5.5786642543514E-03
(PID.TID 0000.0001) %MON forcing_fv_sd                =   4.6857710749175E-02
(PID.TID 0000.0001) %MON forcing_fv_del2              =   4.5320540386280E-04
(PID.TID 0000.0001) %MON advcfl_uvel_max              =   5.3874391542531E-02
(PID.TID 0000.0001) %MON advcfl_vvel_max              =   3.2460562304953E-02
(PID.TID 0000.0001) %MON advcfl_wvel_max              =   1.0549042315471E-01
(PID.TID 0000.0001) %MON advcfl_W_hf_max              =   1.1943545367400E-01
(PID.TID 0000.0001) %MON pe_b_mean                    =  -8.5178884902153E-03
(PID.TID 0000.0001) %MON ke_max                       =   3.8516788876713E-03
(PID.TID 0000.0001) %MON ke_mean                      =   3.1904730785903E-05
(PID.TID 0000.0001) %MON ke_vol                       =   1.3442141716554E+22
(PID.TID 0000.0001) %MON vort_r_min                   =  -2.9345274423674E-07
(PID.TID 0000.0001) %MON vort_r_max                   =   3.0167375470577E-07
(PID.TID 0000.0001) %MON vort_a_mean                  =  -2.4531016357186E-05
(PID.TID 0000.0001) %MON vort_a_sd                    =   7.3436014145729E-05
(PID.TID 0000.0001) %MON vort_p_mean                  =  -2.9400918676717E-05
(PID.TID 0000.0001) %MON vort_p_sd                    =   1.0337864471623E-04
(PID.TID 0000.0001) %MON surfExpan_theta_mean         =   2.1318402612831E-03
(PID.TID 0000.0001) %MON surfExpan_salt_mean          =  -6.0542882186263E-05
(PID.TID 0000.0001) // =======================================================
(PID.TID 0000.0001) // End MONITOR dynamic field statistics
(PID.TID 0000.0001) // =======================================================
time,SST,SSS,fu,fv,Q,E-P,i0,i1,a,b =   1.0368E+06  2.5714E+01  0.0000E+00 -8.7167E-03  2.5158E-02 -9.0832E+01 -5.1099E-06    12     1  9.0000E-01  1.0000E-01
time,fu0,fu1,fu =   1.0368E+06 -1.3840E-02 -8.1474E-03 -8.7167E-03  9.000000000000000E-01  9.999999999999998E-02
 cg2d: Sum(rhs),rhsMax =   3.49720252756924E-15  1.72940021508163E+02
(PID.TID 0000.0001)                    cg2d_init_res =    3.58751268684946E-03
(PID.TID 0000.0001)                       cg2d_iters =    91
(PID.TID 0000.0001)                         cg2d_res =    9.19967273226370E-10
(PID.TID 0000.0001) // =======================================================
(PID.TID 0000.0001) // Begin MONITOR dynamic field statistics
(PID.TID 0000.0001) // =======================================================
(PID.TID 0000.0001) %MON time_tsnumber                =                     7
(PID.TID 0000.0001) %MON time_secondsf                =   1.2096000000000E+06
(PID.TID 0000.0001) %MON dynstat_eta_max              =   6.1158497935651E+04
(PID.TID 0000.0001) %MON dynstat_eta_min              =  -9.5059628939381E+04
(PID.TID 0000.0001) %MON dynstat_eta_mean             =   1.7551442385315E-12
(PID.TID 0000.0001) %MON dynstat_eta_sd               =   4.0659388311418E+04
(PID.TID 0000.0001) %MON dynstat_eta_del2             =   2.1195064082027E+03
(PID.TID 0000.0001) %MON dynstat_uvel_max             =   8.8437757275337E-02
(PID.TID 0000.0001) %MON dynstat_uvel_min             =  -7.5585455417547E-02
(PID.TID 0000.0001) %MON dynstat_uvel_mean            =   3.1923411869113E-04
(PID.TID 0000.0001) %MON dynstat_uvel_sd              =   4.9836314286192E-03
(PID.TID 0000.0001) %MON dynstat_uvel_del2            =   6.3637987966248E-05
(PID.TID 0000.0001) %MON dynstat_vvel_max             =   7.5441080716900E-02
(PID.TID 0000.0001) %MON dynstat_vvel_min             =  -9.4862733612053E-02
(PID.TID 0000.0001) %MON dynstat_vvel_mean            =  -9.9641916995277E-05
(PID.TID 0000.0001) %MON dynstat_vvel_sd              =   8.1821626301328E-03
(PID.TID 0000.0001) %MON dynstat_vvel_del2            =   8.8243816229983E-05
(PID.TID 0000.0001) %MON dynstat_wvel_max             =   1.7916634736736E+00
(PID.TID 0000.0001) %MON dynstat_wvel_min             =  -1.7236810950472E+00
(PID.TID 0000.0001) %MON dynstat_wvel_mean            =  -8.5358702290540E-05
(PID.TID 0000.0001) %MON dynstat_wvel_sd              =   2.1276542147868E-01
(PID.TID 0000.0001) %MON dynstat_wvel_del2            =   3.1658455251036E-03
(PID.TID 0000.0001) %MON dynstat_theta_max            =   2.9742931173791E+01
(PID.TID 0000.0001) %MON dynstat_theta_min            =  -2.6584104080167E+00
(PID.TID 0000.0001) %MON dynstat_theta_mean           =   3.6027576967015E+00
(PID.TID 0000.0001) %MON dynstat_theta_sd             =   4.4014788935876E+00
(PID.TID 0000.0001) %MON dynstat_theta_del2           =   5.2543270493330E-03
(PID.TID 0000.0001) %MON dynstat_salt_max             =   3.7434629201899E+01
(PID.TID 0000.0001) %MON dynstat_salt_min             =   2.9779161544570E+01
(PID.TID 0000.0001) %MON dynstat_salt_mean            =   3.4718001120430E+01
(PID.TID 0000.0001) %MON dynstat_salt_sd              =   2.9442003235230E-01
(PID.TID 0000.0001) %MON dynstat_salt_del2            =   1.0257724393958E-03
(PID.TID 0000.0001) %MON forcing_qnet_max             =   4.5578450464295E+02
(PID.TID 0000.0001) %MON forcing_qnet_min             =  -2.1264576752152E+02
(PID.TID 0000.0001) %MON forcing_qnet_mean            =  -1.5518052365456E+01
(PID.TID 0000.0001) %MON forcing_qnet_sd              =   1.1757431526940E+02
(PID.TID 0000.0001) %MON forcing_qnet_del2            =   7.4026623293719E-01
(PID.TID 0000.0001) %MON forcing_qsw_max              =   0.0000000000000E+00
(PID.TID 0000.0001) %MON forcing_qsw_min              =   0.0000000000000E+00
(PID.TID 0000.0001) %MON forcing_qsw_mean             =   0.0000000000000E+00
(PID.TID 0000.0001) %MON forcing_qsw_sd               =   0.0000000000000E+00
(PID.TID 0000.0001) %MON forcing_qsw_del2             =   0.0000000000000E+00
(PID.TID 0000.0001) %MON forcing_empmr_max            =   5.2302461935749E-05
(PID.TID 0000.0001) %MON forcing_empmr_min            =  -1.3705199332603E-04
(PID.TID 0000.0001) %MON forcing_empmr_mean           =   2.0432568138134E-22
(PID.TID 0000.0001) %MON forcing_empmr_sd             =   2.3550327612301E-05
(PID.TID 0000.0001) %MON forcing_empmr_del2           =   2.4956923451985E-07
(PID.TID 0000.0001) %MON forcing_fu_max               =   2.7026165562751E-01
(PID.TID 0000.0001) %MON forcing_fu_min               =  -1.6844031577850E-01
(PID.TID 0000.0001) %MON forcing_fu_mean              =   1.6107204018621E-02
(PID.TID 0000.0001) %MON forcing_fu_sd                =   9.0739594300691E-02
(PID.TID 0000.0001) %MON forcing_fu_del2              =   6.9299839977463E-04
(PID.TID 0000.0001) %MON forcing_fv_max               =   2.2748160411253E-01
(PID.TID 0000.0001) %MON forcing_fv_min               =  -1.7989087512562E-01
(PID.TID 0000.0001) %MON forcing_fv_mean              =  -5.4321470865700E-03
(PID.TID 0000.0001) %MON forcing_fv_sd                =   4.7372396100423E-02
(PID.TID 0000.0001) %MON forcing_fv_del2              =   4.6399021419221E-04
(PID.TID 0000.0001) %MON advcfl_uvel_max              =   5.8463657604484E-02
(PID.TID 0000.0001) %MON advcfl_vvel_max              =   3.6860615450976E-02
(PID.TID 0000.0001) %MON advcfl_wvel_max              =   1.1178133141244E-01
(PID.TID 0000.0001) %MON advcfl_W_hf_max              =   1.2655797209144E-01
(PID.TID 0000.0001) %MON pe_b_mean                    =  -8.6501892739672E-03
(PID.TID 0000.0001) %MON ke_max                       =   5.0801122164093E-03
(PID.TID 0000.0001) %MON ke_mean                      =   4.1306913805538E-05
(PID.TID 0000.0001) %MON ke_vol                       =   1.3442141716554E+22
(PID.TID 0000.0001) %MON vort_r_min                   =  -2.7726082047646E-07
(PID.TID 0000.0001) %MON vort_r_max                   =   2.6914053673986E-07
(PID.TID 0000.0001) %MON vort_a_mean                  =  -2.4531016239528E-05
(PID.TID 0000.0001) %MON vort_a_sd                    =   7.3436098308964E-05
(PID.TID 0000.0001) %MON vort_p_mean                  =  -2.9400918813659E-05
(PID.TID 0000.0001) %MON vort_p_sd                    =   1.0337849910742E-04
(PID.TID 0000.0001) %MON surfExpan_theta_mean         =  -1.6210262272925E-03
(PID.TID 0000.0001) %MON surfExpan_salt_mean          =  -5.5019817140530E-05
(PID.TID 0000.0001) // =======================================================
(PID.TID 0000.0001) // End MONITOR dynamic field statistics
(PID.TID 0000.0001) // =======================================================
time,SST,SSS,fu,fv,Q,E-P,i0,i1,a,b =   1.2096E+06  2.5854E+01  0.0000E+00 -8.3372E-03  2.4375E-02 -9.1619E+01 -5.1099E-06    12     1  9.6667E-01  3.3333E-02
time,fu0,fu1,fu =   1.2096E+06 -1.3840E-02 -8.1474E-03 -8.3372E-03  9.666666666666667E-01  3.333333333333333E-02
 cg2d: Sum(rhs),rhsMax =  -1.99840144432528E-15  1.72953737521561E+02
(PID.TID 0000.0001)                    cg2d_init_res =    3.93583955196669E-03
(PID.TID 0000.0001)                       cg2d_iters =    90
(PID.TID 0000.0001)                         cg2d_res =    8.67207526921605E-10
(PID.TID 0000.0001) // =======================================================
(PID.TID 0000.0001) // Begin MONITOR dynamic field statistics
(PID.TID 0000.0001) // =======================================================
(PID.TID 0000.0001) %MON time_tsnumber                =                     8
(PID.TID 0000.0001) %MON time_secondsf                =   1.3824000000000E+06
(PID.TID 0000.0001) %MON dynstat_eta_max              =   5.6620333789730E+04
(PID.TID 0000.0001) %MON dynstat_eta_min              =  -9.4430092486089E+04
(PID.TID 0000.0001) %MON dynstat_eta_mean             =   5.7042187752274E-12
(PID.TID 0000.0001) %MON dynstat_eta_sd               =   4.0356564913425E+04
(PID.TID 0000.0001) %MON dynstat_eta_del2             =   2.1196098164436E+03
(PID.TID 0000.0001) %MON dynstat_uvel_max             =   1.0202539503559E-01
(PID.TID 0000.0001) %MON dynstat_uvel_min             =  -6.5349026433186E-02
(PID.TID 0000.0001) %MON dynstat_uvel_mean            =   5.4593375074865E-04
(PID.TID 0000.0001) %MON dynstat_uvel_sd              =   5.8257405584441E-03
(PID.TID 0000.0001) %MON dynstat_uvel_del2            =   6.8235755948313E-05
(PID.TID 0000.0001) %MON dynstat_vvel_max             =   8.0792331654391E-02
(PID.TID 0000.0001) %MON dynstat_vvel_min             =  -1.0475340644960E-01
(PID.TID 0000.0001) %MON dynstat_vvel_mean            =  -3.3376701352865E-04
(PID.TID 0000.0001) %MON dynstat_vvel_sd              =   8.9604211597768E-03
(PID.TID 0000.0001) %MON dynstat_vvel_del2            =   9.5758451762190E-05
(PID.TID 0000.0001) %MON dynstat_wvel_max             =   1.9172751408092E+00
(PID.TID 0000.0001) %MON dynstat_wvel_min             =  -1.7392537235357E+00
(PID.TID 0000.0001) %MON dynstat_wvel_mean            =   1.7825593646305E-04
(PID.TID 0000.0001) %MON dynstat_wvel_sd              =   2.2629952555793E-01
(PID.TID 0000.0001) %MON dynstat_wvel_del2            =   3.2972837751111E-03
(PID.TID 0000.0001) %MON dynstat_theta_max            =   2.9791544771625E+01
(PID.TID 0000.0001) %MON dynstat_theta_min            =  -2.7399708463345E+00
(PID.TID 0000.0001) %MON dynstat_theta_mean           =   3.6028880759258E+00
(PID.TID 0000.0001) %MON dynstat_theta_sd             =   4.4015946716964E+00
(PID.TID 0000.0001) %MON dynstat_theta_del2           =   5.1729791304063E-03
(PID.TID 0000.0001) %MON dynstat_salt_max             =   3.7434373068992E+01
(PID.TID 0000.0001) %MON dynstat_salt_min             =   2.9778578256337E+01
(PID.TID 0000.0001) %MON dynstat_salt_mean            =   3.4718001104179E+01
(PID.TID 0000.0001) %MON dynstat_salt_sd              =   2.9442253711256E-01
(PID.TID 0000.0001) %MON dynstat_salt_del2            =   1.0243331960111E-03
(PID.TID 0000.0001) %MON forcing_qnet_max             =   4.7119176719395E+02
(PID.TID 0000.0001) %MON forcing_qnet_min             =  -2.1244587012014E+02
(PID.TID 0000.0001) %MON forcing_qnet_mean            =  -1.5444657116170E+01
(PID.TID 0000.0001) %MON forcing_qnet_sd              =   1.1750182863142E+02
(PID.TID 0000.0001) %MON forcing_qnet_del2            =   7.5491844457055E-01
(PID.TID 0000.0001) %MON forcing_qsw_max              =   0.0000000000000E+00
(PID.TID 0000.0001) %MON forcing_qsw_min              =   0.0000000000000E+00
(PID.TID 0000.0001) %MON forcing_qsw_mean             =   0.0000000000000E+00
(PID.TID 0000.0001) %MON forcing_qsw_sd               =   0.0000000000000E+00
(PID.TID 0000.0001) %MON forcing_qsw_del2             =   0.0000000000000E+00
(PID.TID 0000.0001) %MON forcing_empmr_max            =   5.2302461935749E-05
(PID.TID 0000.0001) %MON forcing_empmr_min            =  -1.3705199332603E-04
(PID.TID 0000.0001) %MON forcing_empmr_mean           =   2.0432568138134E-22
(PID.TID 0000.0001) %MON forcing_empmr_sd             =   2.3550327612301E-05
(PID.TID 0000.0001) %MON forcing_empmr_del2           =   2.4956923451985E-07
(PID.TID 0000.0001) %MON forcing_fu_max               =   2.7545738964627E-01
(PID.TID 0000.0001) %MON forcing_fu_min               =  -1.7006715613998E-01
(PID.TID 0000.0001) %MON forcing_fu_mean              =   1.6087494476729E-02
(PID.TID 0000.0001) %MON forcing_fu_sd                =   9.0983735824982E-02
(PID.TID 0000.0001) %MON forcing_fu_del2              =   7.0822270205174E-04
(PID.TID 0000.0001) %MON forcing_fv_max               =   2.3124141489051E-01
(PID.TID 0000.0001) %MON forcing_fv_min               =  -1.7872155993945E-01
(PID.TID 0000.0001) %MON forcing_fv_mean              =  -5.2856299187887E-03
(PID.TID 0000.0001) %MON forcing_fv_sd                =   4.7940769894797E-02
(PID.TID 0000.0001) %MON forcing_fv_del2              =   4.7659557826527E-04
(PID.TID 0000.0001) %MON advcfl_uvel_max              =   6.7446054107329E-02
(PID.TID 0000.0001) %MON advcfl_vvel_max              =   4.0703813661004E-02
(PID.TID 0000.0001) %MON advcfl_wvel_max              =   1.1934959130723E-01
(PID.TID 0000.0001) %MON advcfl_W_hf_max              =   1.3513279279180E-01
(PID.TID 0000.0001) %MON pe_b_mean                    =  -8.7589808484986E-03
(PID.TID 0000.0001) %MON ke_max                       =   6.3878026254541E-03
(PID.TID 0000.0001) %MON ke_mean                      =   5.1543669951553E-05
(PID.TID 0000.0001) %MON ke_vol                       =   1.3442141716554E+22
(PID.TID 0000.0001) %MON vort_r_min                   =  -2.4222610816371E-07
(PID.TID 0000.0001) %MON vort_r_max                   =   2.1392177544445E-07
(PID.TID 0000.0001) %MON vort_a_mean                  =  -2.4531016038906E-05
(PID.TID 0000.0001) %MON vort_a_sd                    =   7.3436152167138E-05
(PID.TID 0000.0001) %MON vort_p_mean                  =  -2.9400852988247E-05
(PID.TID 0000.0001) %MON vort_p_sd                    =   1.0337784441615E-04
(PID.TID 0000.0001) %MON surfExpan_theta_mean         =  -4.3267375856409E-03
(PID.TID 0000.0001) %MON surfExpan_salt_mean          =  -5.6959413092894E-05
(PID.TID 0000.0001) // =======================================================
(PID.TID 0000.0001) // End MONITOR dynamic field statistics
(PID.TID 0000.0001) // =======================================================
S/R EXTERNAL_FIELDS_LOAD: Reading new data:    1    2         8  1.382400000000E+06
(PID.TID 0000.0001)  MDS_READ_FIELD: opening global file: trenberth_taux.bin
(PID.TID 0000.0001)  MDS_READ_FIELD: opening global file: trenberth_taux.bin
(PID.TID 0000.0001)  MDS_READ_FIELD: opening global file: trenberth_tauy.bin
(PID.TID 0000.0001)  MDS_READ_FIELD: opening global file: trenberth_tauy.bin
(PID.TID 0000.0001)  MDS_READ_FIELD: opening global file: shi_qnet.bin
(PID.TID 0000.0001)  MDS_READ_FIELD: opening global file: shi_qnet.bin
(PID.TID 0000.0001)  MDS_READ_FIELD: opening global file: shi_empmr.bin
(PID.TID 0000.0001)  MDS_READ_FIELD: opening global file: shi_empmr.bin
(PID.TID 0000.0001)  MDS_READ_FIELD: opening global file: lev_sst.bin
(PID.TID 0000.0001)  MDS_READ_FIELD: opening global file: lev_sst.bin
(PID.TID 0000.0001)  MDS_READ_FIELD: opening global file: deltageopotjmd95.bin
(PID.TID 0000.0001)  MDS_READ_FIELD: opening global file: deltageopotjmd95.bin
time,SST,SSS,fu,fv,Q,E-P,i0,i1,a,b =   1.3824E+06  2.5909E+01  0.0000E+00 -8.0357E-03  2.3906E-02 -9.1466E+01 -5.1099E-06     1     2  3.3333E-02  9.6667E-01
time,fu0,fu1,fu =   1.3824E+06 -8.1474E-03 -4.7952E-03 -8.0357E-03  3.333333333333333E-02  9.666666666666667E-01
 cg2d: Sum(rhs),rhsMax =  -2.58126853225349E-15  1.72967914138186E+02
(PID.TID 0000.0001)                    cg2d_init_res =    3.96266035411128E-03
(PID.TID 0000.0001)                       cg2d_iters =    92
(PID.TID 0000.0001)                         cg2d_res =    9.26973469472598E-10
(PID.TID 0000.0001) // =======================================================
(PID.TID 0000.0001) // Begin MONITOR dynamic field statistics
(PID.TID 0000.0001) // =======================================================
(PID.TID 0000.0001) %MON time_tsnumber                =                     9
(PID.TID 0000.0001) %MON time_secondsf                =   1.5552000000000E+06
(PID.TID 0000.0001) %MON dynstat_eta_max              =   5.2284195136559E+04
(PID.TID 0000.0001) %MON dynstat_eta_min              =  -9.3568419047233E+04
(PID.TID 0000.0001) %MON dynstat_eta_mean             =  -4.3878605963288E-13
(PID.TID 0000.0001) %MON dynstat_eta_sd               =   4.0032054929561E+04
(PID.TID 0000.0001) %MON dynstat_eta_del2             =   2.1196955329117E+03
(PID.TID 0000.0001) %MON dynstat_uvel_max             =   1.1473100974073E-01
(PID.TID 0000.0001) %MON dynstat_uvel_min             =  -6.6919658655097E-02
(PID.TID 0000.0001) %MON dynstat_uvel_mean            =   6.2915475680008E-04
(PID.TID 0000.0001) %MON dynstat_uvel_sd              =   6.7065917237244E-03
(PID.TID 0000.0001) %MON dynstat_uvel_del2            =   7.2119984631745E-05
(PID.TID 0000.0001) %MON dynstat_vvel_max             =   8.4391273936197E-02
(PID.TID 0000.0001) %MON dynstat_vvel_min             =  -1.1294500720840E-01
(PID.TID 0000.0001) %MON dynstat_vvel_mean            =  -4.1847977494807E-04
(PID.TID 0000.0001) %MON dynstat_vvel_sd              =   9.6108899419138E-03
(PID.TID 0000.0001) %MON dynstat_vvel_del2            =   1.0176138080379E-04
(PID.TID 0000.0001) %MON dynstat_wvel_max             =   1.9912516397641E+00
(PID.TID 0000.0001) %MON dynstat_wvel_min             =  -1.7055088360106E+00
(PID.TID 0000.0001) %MON dynstat_wvel_mean            =   3.5952456258977E-04
(PID.TID 0000.0001) %MON dynstat_wvel_sd              =   2.3569278886217E-01
(PID.TID 0000.0001) %MON dynstat_wvel_del2            =   3.3677858687293E-03
(PID.TID 0000.0001) %MON dynstat_theta_max            =   2.9837807412384E+01
(PID.TID 0000.0001) %MON dynstat_theta_min            =  -2.8177729099300E+00
(PID.TID 0000.0001) %MON dynstat_theta_mean           =   3.6030114439471E+00
(PID.TID 0000.0001) %MON dynstat_theta_sd             =   4.4017283471830E+00
(PID.TID 0000.0001) %MON dynstat_theta_del2           =   5.1081516540418E-03
(PID.TID 0000.0001) %MON dynstat_salt_max             =   3.7434099929078E+01
(PID.TID 0000.0001) %MON dynstat_salt_min             =   2.9777482944655E+01
(PID.TID 0000.0001) %MON dynstat_salt_mean            =   3.4718001108462E+01
(PID.TID 0000.0001) %MON dynstat_salt_sd              =   2.9442401176673E-01
(PID.TID 0000.0001) %MON dynstat_salt_del2            =   1.0236380422002E-03
(PID.TID 0000.0001) %MON forcing_qnet_max             =   4.7142477748630E+02
(PID.TID 0000.0001) %MON forcing_qnet_min             =  -2.0867118774499E+02
(PID.TID 0000.0001) %MON forcing_qnet_mean            =  -1.5466374378120E+01
(PID.TID 0000.0001) %MON forcing_qnet_sd              =   1.1627486818170E+02
(PID.TID 0000.0001) %MON forcing_qnet_del2            =   7.5505908519335E-01
(PID.TID 0000.0001) %MON forcing_qsw_max              =   0.0000000000000E+00
(PID.TID 0000.0001) %MON forcing_qsw_min              =   0.0000000000000E+00
(PID.TID 0000.0001) %MON forcing_qsw_mean             =   0.0000000000000E+00
(PID.TID 0000.0001) %MON forcing_qsw_sd               =   0.0000000000000E+00
(PID.TID 0000.0001) %MON forcing_qsw_del2             =   0.0000000000000E+00
(PID.TID 0000.0001) %MON forcing_empmr_max            =   5.2302461935749E-05
(PID.TID 0000.0001) %MON forcing_empmr_min            =  -1.3705199332603E-04
(PID.TID 0000.0001) %MON forcing_empmr_mean           =  -2.0432568138134E-22
(PID.TID 0000.0001) %MON forcing_empmr_sd             =   2.3550327612301E-05
(PID.TID 0000.0001) %MON forcing_empmr_del2           =   2.4956923451985E-07
(PID.TID 0000.0001) %MON forcing_fu_max               =   2.7858281009884E-01
(PID.TID 0000.0001) %MON forcing_fu_min               =  -1.6918717679013E-01
(PID.TID 0000.0001) %MON forcing_fu_mean              =   1.6132577065933E-02
(PID.TID 0000.0001) %MON forcing_fu_sd                =   9.0934151581891E-02
(PID.TID 0000.0001) %MON forcing_fu_del2              =   7.0876784663481E-04
(PID.TID 0000.0001) %MON forcing_fv_max               =   2.2991287307515E-01
(PID.TID 0000.0001) %MON forcing_fv_min               =  -1.7714560259865E-01
(PID.TID 0000.0001) %MON forcing_fv_mean              =  -5.2783813973473E-03
(PID.TID 0000.0001) %MON forcing_fv_sd                =   4.7923548875222E-02
(PID.TID 0000.0001) %MON forcing_fv_del2              =   4.7743132754674E-04
(PID.TID 0000.0001) %MON advcfl_uvel_max              =   7.5845370538010E-02
(PID.TID 0000.0001) %MON advcfl_vvel_max              =   4.3886806960911E-02
(PID.TID 0000.0001) %MON advcfl_wvel_max              =   1.2741343954931E-01
(PID.TID 0000.0001) %MON advcfl_W_hf_max              =   1.4425652586888E-01
(PID.TID 0000.0001) %MON pe_b_mean                    =  -8.7717790712764E-03
(PID.TID 0000.0001) %MON ke_max                       =   7.7540852357115E-03
(PID.TID 0000.0001) %MON ke_mean                      =   6.2030643763879E-05
(PID.TID 0000.0001) %MON ke_vol                       =   1.3442141716554E+22
(PID.TID 0000.0001) %MON vort_r_min                   =  -3.2567518241586E-07
(PID.TID 0000.0001) %MON vort_r_max                   =   2.8415088815686E-07
(PID.TID 0000.0001) %MON vort_a_mean                  =  -2.4531015790613E-05
(PID.TID 0000.0001) %MON vort_a_sd                    =   7.3436172416134E-05
(PID.TID 0000.0001) %MON vort_p_mean                  =  -2.9400747398923E-05
(PID.TID 0000.0001) %MON vort_p_sd                    =   1.0337690812578E-04
(PID.TID 0000.0001) %MON surfExpan_theta_mean         =  -5.4601323749259E-03
(PID.TID 0000.0001) %MON surfExpan_salt_mean          =  -5.4241551771397E-05
(PID.TID 0000.0001) // =======================================================
(PID.TID 0000.0001) // End MONITOR dynamic field statistics
(PID.TID 0000.0001) // =======================================================
time,SST,SSS,fu,fv,Q,E-P,i0,i1,a,b =   1.5552E+06  2.5880E+01  0.0000E+00 -7.8122E-03  2.3751E-02 -9.0373E+01 -5.1099E-06     1     2  1.0000E-01  9.0000E-01
time,fu0,fu1,fu =   1.5552E+06 -8.1474E-03 -4.7952E-03 -7.8122E-03  1.000000000000000E-01  9.000000000000000E-01
 cg2d: Sum(rhs),rhsMax =  -6.38378239159465E-16  1.72980797343269E+02
(PID.TID 0000.0001)                    cg2d_init_res =    3.62681134270915E-03
(PID.TID 0000.0001)                       cg2d_iters =    93
(PID.TID 0000.0001)                         cg2d_res =    9.19479652597279E-10
(PID.TID 0000.0001) // =======================================================
(PID.TID 0000.0001) // Begin MONITOR dynamic field statistics
(PID.TID 0000.0001) // =======================================================
(PID.TID 0000.0001) %MON time_tsnumber                =                    10
(PID.TID 0000.0001) %MON time_secondsf                =   1.7280000000000E+06
(PID.TID 0000.0001) %MON dynstat_eta_max              =   5.1385361887812E+04
(PID.TID 0000.0001) %MON dynstat_eta_min              =  -9.2841880799482E+04
(PID.TID 0000.0001) %MON dynstat_eta_mean             =   2.6327163577973E-12
(PID.TID 0000.0001) %MON dynstat_eta_sd               =   3.9769781220787E+04
(PID.TID 0000.0001) %MON dynstat_eta_del2             =   2.1197587189730E+03
(PID.TID 0000.0001) %MON dynstat_uvel_max             =   1.2649916055634E-01
(PID.TID 0000.0001) %MON dynstat_uvel_min             =  -6.6683280921534E-02
(PID.TID 0000.0001) %MON dynstat_uvel_mean            =   5.9180465069570E-04
(PID.TID 0000.0001) %MON dynstat_uvel_sd              =   7.6225729105992E-03
(PID.TID 0000.0001) %MON dynstat_uvel_del2            =   7.5509462679273E-05
(PID.TID 0000.0001) %MON dynstat_vvel_max             =   8.6872665828489E-02
(PID.TID 0000.0001) %MON dynstat_vvel_min             =  -1.1933323686351E-01
(PID.TID 0000.0001) %MON dynstat_vvel_mean            =  -3.8439178929651E-04
(PID.TID 0000.0001) %MON dynstat_vvel_sd              =   1.0129514677391E-02
(PID.TID 0000.0001) %MON dynstat_vvel_del2            =   1.0628846770681E-04
(PID.TID 0000.0001) %MON dynstat_wvel_max             =   2.0210659130250E+00
(PID.TID 0000.0001) %MON dynstat_wvel_min             =  -1.6344744116273E+00
(PID.TID 0000.0001) %MON dynstat_wvel_mean            =   4.4750648123220E-04
(PID.TID 0000.0001) %MON dynstat_wvel_sd              =   2.4123666178743E-01
(PID.TID 0000.0001) %MON dynstat_wvel_del2            =   3.3877617005690E-03
(PID.TID 0000.0001) %MON dynstat_theta_max            =   2.9875703940628E+01
(PID.TID 0000.0001) %MON dynstat_theta_min            =  -2.8876406758698E+00
(PID.TID 0000.0001) %MON dynstat_theta_mean           =   3.6031261785560E+00
(PID.TID 0000.0001) %MON dynstat_theta_sd             =   4.4018779114978E+00
(PID.TID 0000.0001) %MON dynstat_theta_del2           =   5.0592000183688E-03
(PID.TID 0000.0001) %MON dynstat_salt_max             =   3.7433822011514E+01
(PID.TID 0000.0001) %MON dynstat_salt_min             =   2.9776112711744E+01
(PID.TID 0000.0001) %MON dynstat_salt_mean            =   3.4718001099799E+01
(PID.TID 0000.0001) %MON dynstat_salt_sd              =   2.9442381520599E-01
(PID.TID 0000.0001) %MON dynstat_salt_del2            =   1.0250515810783E-03
(PID.TID 0000.0001) %MON forcing_qnet_max             =   4.5648353552001E+02
(PID.TID 0000.0001) %MON forcing_qnet_min             =  -2.0132172039607E+02
(PID.TID 0000.0001) %MON forcing_qnet_mean            =  -1.5583204151305E+01
(PID.TID 0000.0001) %MON forcing_qnet_sd              =   1.1389045946676E+02
(PID.TID 0000.0001) %MON forcing_qnet_del2            =   7.4041337483018E-01
(PID.TID 0000.0001) %MON forcing_qsw_max              =   0.0000000000000E+00
(PID.TID 0000.0001) %MON forcing_qsw_min              =   0.0000000000000E+00
(PID.TID 0000.0001) %MON forcing_qsw_mean             =   0.0000000000000E+00
(PID.TID 0000.0001) %MON forcing_qsw_sd               =   0.0000000000000E+00
(PID.TID 0000.0001) %MON forcing_qsw_del2             =   0.0000000000000E+00
(PID.TID 0000.0001) %MON forcing_empmr_max            =   5.2302461935749E-05
(PID.TID 0000.0001) %MON forcing_empmr_min            =  -1.3705199332603E-04
(PID.TID 0000.0001) %MON forcing_empmr_mean           =   0.0000000000000E+00
(PID.TID 0000.0001) %MON forcing_empmr_sd             =   2.3550327612301E-05
(PID.TID 0000.0001) %MON forcing_empmr_del2           =   2.4956923451985E-07
(PID.TID 0000.0001) %MON forcing_fu_max               =   2.7819065969079E-01
(PID.TID 0000.0001) %MON forcing_fu_min               =  -1.7091440376031E-01
(PID.TID 0000.0001) %MON forcing_fu_mean              =   1.6242451786234E-02
(PID.TID 0000.0001) %MON forcing_fu_sd                =   9.0610414042248E-02
(PID.TID 0000.0001) %MON forcing_fu_del2              =   6.9495462547040E-04
(PID.TID 0000.0001) %MON forcing_fv_max               =   2.2349597866647E-01
(PID.TID 0000.0001) %MON forcing_fv_min               =  -1.7516300310322E-01
(PID.TID 0000.0001) %MON forcing_fv_mean              =  -5.4104015222459E-03
(PID.TID 0000.0001) %MON forcing_fv_sd                =   4.7320622627559E-02
(PID.TID 0000.0001) %MON forcing_fv_del2              =   4.6652458216358E-04
(PID.TID 0000.0001) %MON advcfl_uvel_max              =   8.3624956555551E-02
(PID.TID 0000.0001) %MON advcfl_vvel_max              =   4.6369068095116E-02
(PID.TID 0000.0001) %MON advcfl_wvel_max              =   1.3319602119555E-01
(PID.TID 0000.0001) %MON advcfl_W_hf_max              =   1.5080352076824E-01
(PID.TID 0000.0001) %MON pe_b_mean                    =  -8.6737296177895E-03
(PID.TID 0000.0001) %MON ke_max                       =   9.1592727771170E-03
(PID.TID 0000.0001) %MON ke_mean                      =   7.2530887229956E-05
(PID.TID 0000.0001) %MON ke_vol                       =   1.3442141716554E+22
(PID.TID 0000.0001) %MON vort_r_min                   =  -4.0741124599115E-07
(PID.TID 0000.0001) %MON vort_r_max                   =   3.6495818334362E-07
(PID.TID 0000.0001) %MON vort_a_mean                  =  -2.4531015536463E-05
(PID.TID 0000.0001) %MON vort_a_sd                    =   7.3436164030257E-05
(PID.TID 0000.0001) %MON vort_p_mean                  =  -2.9400633742179E-05
(PID.TID 0000.0001) %MON vort_p_sd                    =   1.0337595186034E-04
(PID.TID 0000.0001) %MON surfExpan_theta_mean         =  -5.1204163327909E-03
(PID.TID 0000.0001) %MON surfExpan_salt_mean          =  -5.2719119317799E-05
(PID.TID 0000.0001) // =======================================================
(PID.TID 0000.0001) // End MONITOR dynamic field statistics
(PID.TID 0000.0001) // =======================================================
time,SST,SSS,fu,fv,Q,E-P,i0,i1,a,b =   1.7280E+06  2.5851E+01  0.0000E+00 -7.5887E-03  2.3596E-02 -8.9280E+01 -5.1099E-06     1     2  1.6667E-01  8.3333E-01
time,fu0,fu1,fu =   1.7280E+06 -8.1474E-03 -4.7952E-03 -7.5887E-03  1.666666666666667E-01  8.333333333333334E-01
 cg2d: Sum(rhs),rhsMax =  -1.13797860024079E-15  1.72990801054380E+02
(PID.TID 0000.0001)                    cg2d_init_res =    3.12700000918558E-03
(PID.TID 0000.0001)                       cg2d_iters =    91
(PID.TID 0000.0001)                         cg2d_res =    9.41852185952622E-10
(PID.TID 0000.0001) // =======================================================
(PID.TID 0000.0001) // Begin MONITOR dynamic field statistics
(PID.TID 0000.0001) // =======================================================
(PID.TID 0000.0001) %MON time_tsnumber                =                    11
(PID.TID 0000.0001) %MON time_secondsf                =   1.9008000000000E+06
(PID.TID 0000.0001) %MON dynstat_eta_max              =   4.7521071954193E+04
(PID.TID 0000.0001) %MON dynstat_eta_min              =  -9.2588226239052E+04
(PID.TID 0000.0001) %MON dynstat_eta_mean             =  -2.1939302981644E-12
(PID.TID 0000.0001) %MON dynstat_eta_sd               =   3.9595132634870E+04
(PID.TID 0000.0001) %MON dynstat_eta_del2             =   2.1197971297680E+03
(PID.TID 0000.0001) %MON dynstat_uvel_max             =   1.3725606491230E-01
(PID.TID 0000.0001) %MON dynstat_uvel_min             =  -6.4743527698335E-02
(PID.TID 0000.0001) %MON dynstat_uvel_mean            =   4.7909431112839E-04
(PID.TID 0000.0001) %MON dynstat_uvel_sd              =   8.5761591307795E-03
(PID.TID 0000.0001) %MON dynstat_uvel_del2            =   7.8643454731005E-05
(PID.TID 0000.0001) %MON dynstat_vvel_max             =   8.9472841627970E-02
(PID.TID 0000.0001) %MON dynstat_vvel_min             =  -1.2387206190284E-01
(PID.TID 0000.0001) %MON dynstat_vvel_mean            =  -2.8037873719498E-04
(PID.TID 0000.0001) %MON dynstat_vvel_sd              =   1.0518643842094E-02
(PID.TID 0000.0001) %MON dynstat_vvel_del2            =   1.0943366931638E-04
(PID.TID 0000.0001) %MON dynstat_wvel_max             =   2.1374672195325E+00
(PID.TID 0000.0001) %MON dynstat_wvel_min             =  -1.5548343489495E+00
(PID.TID 0000.0001) %MON dynstat_wvel_mean            =   4.5196439137072E-04
(PID.TID 0000.0001) %MON dynstat_wvel_sd              =   2.4343560591999E-01
(PID.TID 0000.0001) %MON dynstat_wvel_del2            =   3.3690299542978E-03
(PID.TID 0000.0001) %MON dynstat_theta_max            =   2.9908331948296E+01
(PID.TID 0000.0001) %MON dynstat_theta_min            =  -2.9525093283217E+00
(PID.TID 0000.0001) %MON dynstat_theta_mean           =   3.6032329905664E+00
(PID.TID 0000.0001) %MON dynstat_theta_sd             =   4.4020399824125E+00
(PID.TID 0000.0001) %MON dynstat_theta_del2           =   5.0265333360400E-03
(PID.TID 0000.0001) %MON dynstat_salt_max             =   3.7433555565131E+01
(PID.TID 0000.0001) %MON dynstat_salt_min             =   2.9774674806076E+01
(PID.TID 0000.0001) %MON dynstat_salt_mean            =   3.4718001096081E+01
(PID.TID 0000.0001) %MON dynstat_salt_sd              =   2.9442144795723E-01
(PID.TID 0000.0001) %MON dynstat_salt_del2            =   1.0259481857551E-03
(PID.TID 0000.0001) %MON forcing_qnet_max             =   4.4154229355371E+02
(PID.TID 0000.0001) %MON forcing_qnet_min             =  -1.9579136980453E+02
(PID.TID 0000.0001) %MON forcing_qnet_mean            =  -1.5700033924490E+01
(PID.TID 0000.0001) %MON forcing_qnet_sd              =   1.1157068146507E+02
(PID.TID 0000.0001) %MON forcing_qnet_del2            =   7.2729757987647E-01
(PID.TID 0000.0001) %MON forcing_qsw_max              =   0.0000000000000E+00
(PID.TID 0000.0001) %MON forcing_qsw_min              =   0.0000000000000E+00
(PID.TID 0000.0001) %MON forcing_qsw_mean             =   0.0000000000000E+00
(PID.TID 0000.0001) %MON forcing_qsw_sd               =   0.0000000000000E+00
(PID.TID 0000.0001) %MON forcing_qsw_del2             =   0.0000000000000E+00
(PID.TID 0000.0001) %MON forcing_empmr_max            =   5.2302461935749E-05
(PID.TID 0000.0001) %MON forcing_empmr_min            =  -1.3705199332603E-04
(PID.TID 0000.0001) %MON forcing_empmr_mean           =  -2.0432568138134E-22
(PID.TID 0000.0001) %MON forcing_empmr_sd             =   2.3550327612301E-05
(PID.TID 0000.0001) %MON forcing_empmr_del2           =   2.4956923451985E-07
(PID.TID 0000.0001) %MON forcing_fu_max               =   2.7779850928273E-01
(PID.TID 0000.0001) %MON forcing_fu_min               =  -1.7423425173542E-01
(PID.TID 0000.0001) %MON forcing_fu_mean              =   1.6352326506535E-02
(PID.TID 0000.0001) %MON forcing_fu_sd                =   9.0355731935459E-02
(PID.TID 0000.0001) %MON forcing_fu_del2              =   6.8332385210054E-04
(PID.TID 0000.0001) %MON forcing_fv_max               =   2.1707908425778E-01
(PID.TID 0000.0001) %MON forcing_fv_min               =  -1.7318040360779E-01
(PID.TID 0000.0001) %MON forcing_fv_mean              =  -5.5424216471445E-03
(PID.TID 0000.0001) %MON forcing_fv_sd                =   4.6771332121489E-02
(PID.TID 0000.0001) %MON forcing_fv_del2              =   4.5745971542986E-04
(PID.TID 0000.0001) %MON advcfl_uvel_max              =   9.0736036625041E-02
(PID.TID 0000.0001) %MON advcfl_vvel_max              =   4.8132709917395E-02
(PID.TID 0000.0001) %MON advcfl_wvel_max              =   1.3651430713361E-01
(PID.TID 0000.0001) %MON advcfl_W_hf_max              =   1.5456045883504E-01
(PID.TID 0000.0001) %MON pe_b_mean                    =  -8.5000142593670E-03
(PID.TID 0000.0001) %MON ke_max                       =   1.0595633165486E-02
(PID.TID 0000.0001) %MON ke_mean                      =   8.3042265838096E-05
(PID.TID 0000.0001) %MON ke_vol                       =   1.3442141716554E+22
(PID.TID 0000.0001) %MON vort_r_min                   =  -4.6995355726444E-07
(PID.TID 0000.0001) %MON vort_r_max                   =   4.2608998334054E-07
(PID.TID 0000.0001) %MON vort_a_mean                  =  -2.4531015315455E-05
(PID.TID 0000.0001) %MON vort_a_sd                    =   7.3436137286543E-05
(PID.TID 0000.0001) %MON vort_p_mean                  =  -2.9400538989527E-05
(PID.TID 0000.0001) %MON vort_p_sd                    =   1.0337519889775E-04
(PID.TID 0000.0001) %MON surfExpan_theta_mean         =  -3.7987597913132E-03
(PID.TID 0000.0001) %MON surfExpan_salt_mean          =  -5.6398007800863E-05
(PID.TID 0000.0001) // =======================================================
(PID.TID 0000.0001) // End MONITOR dynamic field statistics
(PID.TID 0000.0001) // =======================================================
time,SST,SSS,fu,fv,Q,E-P,i0,i1,a,b =   1.9008E+06  2.5822E+01  0.0000E+00 -7.3652E-03  2.3440E-02 -8.8187E+01 -5.1099E-06     1     2  2.3333E-01  7.6667E-01
time,fu0,fu1,fu =   1.9008E+06 -8.1474E-03 -4.7952E-03 -7.3652E-03  2.333333333333333E-01  7.666666666666666E-01
 cg2d: Sum(rhs),rhsMax =  -7.77156117237610E-16  1.72997146442174E+02
(PID.TID 0000.0001)                    cg2d_init_res =    2.73174222534047E-03
(PID.TID 0000.0001)                       cg2d_iters =    84
(PID.TID 0000.0001)                         cg2d_res =    8.93640282725298E-10
(PID.TID 0000.0001) // =======================================================
(PID.TID 0000.0001) // Begin MONITOR dynamic field statistics
(PID.TID 0000.0001) // =======================================================
(PID.TID 0000.0001) %MON time_tsnumber                =                    12
(PID.TID 0000.0001) %MON time_secondsf                =   2.0736000000000E+06
(PID.TID 0000.0001) %MON dynstat_eta_max              =   4.2957603954471E+04
(PID.TID 0000.0001) %MON dynstat_eta_min              =  -9.2540334022104E+04
(PID.TID 0000.0001) %MON dynstat_eta_mean             =  -3.0715024174302E-12
(PID.TID 0000.0001) %MON dynstat_eta_sd               =   3.9503443166703E+04
(PID.TID 0000.0001) %MON dynstat_eta_del2             =   2.1198109191461E+03
(PID.TID 0000.0001) %MON dynstat_uvel_max             =   1.4876153694937E-01
(PID.TID 0000.0001) %MON dynstat_uvel_min             =  -6.8854218978126E-02
(PID.TID 0000.0001) %MON dynstat_uvel_mean            =   3.4374503234893E-04
(PID.TID 0000.0001) %MON dynstat_uvel_sd              =   9.5581344324933E-03
(PID.TID 0000.0001) %MON dynstat_uvel_del2            =   8.1714585149213E-05
(PID.TID 0000.0001) %MON dynstat_vvel_max             =   9.0794313842982E-02
(PID.TID 0000.0001) %MON dynstat_vvel_min             =  -1.2719605040251E-01
(PID.TID 0000.0001) %MON dynstat_vvel_mean            =  -1.5652234237730E-04
(PID.TID 0000.0001) %MON dynstat_vvel_sd              =   1.0783028676818E-02
(PID.TID 0000.0001) %MON dynstat_vvel_del2            =   1.1132528617837E-04
(PID.TID 0000.0001) %MON dynstat_wvel_max             =   2.2828791801586E+00
(PID.TID 0000.0001) %MON dynstat_wvel_min             =  -1.4727406129819E+00
(PID.TID 0000.0001) %MON dynstat_wvel_mean            =   3.9579686622629E-04
(PID.TID 0000.0001) %MON dynstat_wvel_sd              =   2.4285186914159E-01
(PID.TID 0000.0001) %MON dynstat_wvel_del2            =   3.3230887880359E-03
(PID.TID 0000.0001) %MON dynstat_theta_max            =   2.9935881666408E+01
(PID.TID 0000.0001) %MON dynstat_theta_min            =  -3.0124227748913E+00
(PID.TID 0000.0001) %MON dynstat_theta_mean           =   3.6033334252940E+00
(PID.TID 0000.0001) %MON dynstat_theta_sd             =   4.4022151562372E+00
(PID.TID 0000.0001) %MON dynstat_theta_del2           =   5.0060817949835E-03
(PID.TID 0000.0001) %MON dynstat_salt_max             =   3.7433322660936E+01
(PID.TID 0000.0001) %MON dynstat_salt_min             =   2.9773271979930E+01
(PID.TID 0000.0001) %MON dynstat_salt_mean            =   3.4718001106517E+01
(PID.TID 0000.0001) %MON dynstat_salt_sd              =   2.9441714710665E-01
(PID.TID 0000.0001) %MON dynstat_salt_del2            =   1.0268243411545E-03
(PID.TID 0000.0001) %MON forcing_qnet_max             =   4.3015360557608E+02
(PID.TID 0000.0001) %MON forcing_qnet_min             =  -1.9420685395356E+02
(PID.TID 0000.0001) %MON forcing_qnet_mean            =  -1.5816863697674E+01
(PID.TID 0000.0001) %MON forcing_qnet_sd              =   1.0931964867196E+02
(PID.TID 0000.0001) %MON forcing_qnet_del2            =   7.1579580491456E-01
(PID.TID 0000.0001) %MON forcing_qsw_max              =   0.0000000000000E+00
(PID.TID 0000.0001) %MON forcing_qsw_min              =   0.0000000000000E+00
(PID.TID 0000.0001) %MON forcing_qsw_mean             =   0.0000000000000E+00
(PID.TID 0000.0001) %MON forcing_qsw_sd               =   0.0000000000000E+00
(PID.TID 0000.0001) %MON forcing_qsw_del2             =   0.0000000000000E+00
(PID.TID 0000.0001) %MON forcing_empmr_max            =   5.2302461935749E-05
(PID.TID 0000.0001) %MON forcing_empmr_min            =  -1.3705199332603E-04
(PID.TID 0000.0001) %MON forcing_empmr_mean           =  -6.1297704414401E-22
(PID.TID 0000.0001) %MON forcing_empmr_sd             =   2.3550327612301E-05
(PID.TID 0000.0001) %MON forcing_empmr_del2           =   2.4956923451985E-07
(PID.TID 0000.0001) %MON forcing_fu_max               =   2.7740635887467E-01
(PID.TID 0000.0001) %MON forcing_fu_min               =  -1.7755409971052E-01
(PID.TID 0000.0001) %MON forcing_fu_mean              =   1.6462201226836E-02
(PID.TID 0000.0001) %MON forcing_fu_sd                =   9.0170690393126E-02
(PID.TID 0000.0001) %MON forcing_fu_del2              =   6.7398852110683E-04
(PID.TID 0000.0001) %MON forcing_fv_max               =   2.1066218984909E-01
(PID.TID 0000.0001) %MON forcing_fv_min               =  -1.7119780411236E-01
(PID.TID 0000.0001) %MON forcing_fv_mean              =  -5.6744417720431E-03
(PID.TID 0000.0001) %MON forcing_fv_sd                =   4.6277587280153E-02
(PID.TID 0000.0001) %MON forcing_fv_del2              =   4.5034796430965E-04
(PID.TID 0000.0001) %MON advcfl_uvel_max              =   9.7157442494381E-02
(PID.TID 0000.0001) %MON advcfl_vvel_max              =   4.9424305227634E-02
(PID.TID 0000.0001) %MON advcfl_wvel_max              =   1.3722181108605E-01
(PID.TID 0000.0001) %MON advcfl_W_hf_max              =   1.5536148942159E-01
(PID.TID 0000.0001) %MON pe_b_mean                    =  -8.2993167025787E-03
(PID.TID 0000.0001) %MON ke_max                       =   1.2023232574601E-02
(PID.TID 0000.0001) %MON ke_mean                      =   9.3556425663117E-05
(PID.TID 0000.0001) %MON ke_vol                       =   1.3442141716554E+22
(PID.TID 0000.0001) %MON vort_r_min                   =  -5.0842352772796E-07
(PID.TID 0000.0001) %MON vort_r_max                   =   4.6254802188889E-07
(PID.TID 0000.0001) %MON vort_a_mean                  =  -2.4531015157458E-05
(PID.TID 0000.0001) %MON vort_a_sd                    =   7.3436104284516E-05
(PID.TID 0000.0001) %MON vort_p_mean                  =  -2.9400476003756E-05
(PID.TID 0000.0001) %MON vort_p_sd                    =   1.0337477683425E-04
(PID.TID 0000.0001) %MON surfExpan_theta_mean         =  -2.1043786587537E-03
(PID.TID 0000.0001) %MON surfExpan_salt_mean          =  -6.1605949900205E-05
(PID.TID 0000.0001) // =======================================================
(PID.TID 0000.0001) // End MONITOR dynamic field statistics
(PID.TID 0000.0001) // =======================================================
time,SST,SSS,fu,fv,Q,E-P,i0,i1,a,b =   2.0736E+06  2.5793E+01  0.0000E+00 -7.1417E-03  2.3285E-02 -8.7094E+01 -5.1099E-06     1     2  3.0000E-01  7.0000E-01
time,fu0,fu1,fu =   2.0736E+06 -8.1474E-03 -4.7952E-03 -7.1417E-03  3.000000000000000E-01  7.000000000000000E-01
 cg2d: Sum(rhs),rhsMax =  -1.44328993201270E-15  1.72999998738036E+02
(PID.TID 0000.0001)                    cg2d_init_res =    2.58840675802992E-03
(PID.TID 0000.0001)                       cg2d_iters =    88
(PID.TID 0000.0001)                         cg2d_res =    8.46123942448098E-10
(PID.TID 0000.0001) // =======================================================
(PID.TID 0000.0001) // Begin MONITOR dynamic field statistics
(PID.TID 0000.0001) // =======================================================
(PID.TID 0000.0001) %MON time_tsnumber                =                    13
(PID.TID 0000.0001) %MON time_secondsf                =   2.2464000000000E+06
(PID.TID 0000.0001) %MON dynstat_eta_max              =   4.2948551876703E+04
(PID.TID 0000.0001) %MON dynstat_eta_min              =  -9.2456039338539E+04
(PID.TID 0000.0001) %MON dynstat_eta_mean             =   1.7551442385315E-12
(PID.TID 0000.0001) %MON dynstat_eta_sd               =   3.9482811876519E+04
(PID.TID 0000.0001) %MON dynstat_eta_del2             =   2.1198024772000E+03
(PID.TID 0000.0001) %MON dynstat_uvel_max             =   1.5936644715227E-01
(PID.TID 0000.0001) %MON dynstat_uvel_min             =  -7.4231360242505E-02
(PID.TID 0000.0001) %MON dynstat_uvel_mean            =   2.3222375759895E-04
(PID.TID 0000.0001) %MON dynstat_uvel_sd              =   1.0546787793834E-02
(PID.TID 0000.0001) %MON dynstat_uvel_del2            =   8.4846856481875E-05
(PID.TID 0000.0001) %MON dynstat_vvel_max             =   9.0956103372328E-02
(PID.TID 0000.0001) %MON dynstat_vvel_min             =  -1.3058958990906E-01
(PID.TID 0000.0001) %MON dynstat_vvel_mean            =  -5.1677827271198E-05
(PID.TID 0000.0001) %MON dynstat_vvel_sd              =   1.0928659455593E-02
(PID.TID 0000.0001) %MON dynstat_vvel_del2            =   1.1211534560825E-04
(PID.TID 0000.0001) %MON dynstat_wvel_max             =   2.4172017165319E+00
(PID.TID 0000.0001) %MON dynstat_wvel_min             =  -1.4406762832021E+00
(PID.TID 0000.0001) %MON dynstat_wvel_mean            =   3.0726885564052E-04
(PID.TID 0000.0001) %MON dynstat_wvel_sd              =   2.4000229984457E-01
(PID.TID 0000.0001) %MON dynstat_wvel_del2            =   3.2589853840211E-03
(PID.TID 0000.0001) %MON dynstat_theta_max            =   2.9958530803480E+01
(PID.TID 0000.0001) %MON dynstat_theta_min            =  -3.0674630436910E+00
(PID.TID 0000.0001) %MON dynstat_theta_mean           =   3.6034288177184E+00
(PID.TID 0000.0001) %MON dynstat_theta_sd             =   4.4024072854053E+00
(PID.TID 0000.0001) %MON dynstat_theta_del2           =   5.0020345374434E-03
(PID.TID 0000.0001) %MON dynstat_salt_max             =   3.7433147968912E+01
(PID.TID 0000.0001) %MON dynstat_salt_min             =   2.9771963042272E+01
(PID.TID 0000.0001) %MON dynstat_salt_mean            =   3.4718001121209E+01
(PID.TID 0000.0001) %MON dynstat_salt_sd              =   2.9441786341715E-01
(PID.TID 0000.0001) %MON dynstat_salt_del2            =   1.0290133094089E-03
(PID.TID 0000.0001) %MON forcing_qnet_max             =   4.2795289368731E+02
(PID.TID 0000.0001) %MON forcing_qnet_min             =  -1.9262233810258E+02
(PID.TID 0000.0001) %MON forcing_qnet_mean            =  -1.5933693470859E+01
(PID.TID 0000.0001) %MON forcing_qnet_sd              =   1.0714169415822E+02
(PID.TID 0000.0001) %MON forcing_qnet_del2            =   7.0598694006671E-01
(PID.TID 0000.0001) %MON forcing_qsw_max              =   0.0000000000000E+00
(PID.TID 0000.0001) %MON forcing_qsw_min              =   0.0000000000000E+00
(PID.TID 0000.0001) %MON forcing_qsw_mean             =   0.0000000000000E+00
(PID.TID 0000.0001) %MON forcing_qsw_sd               =   0.0000000000000E+00
(PID.TID 0000.0001) %MON forcing_qsw_del2             =   0.0000000000000E+00
(PID.TID 0000.0001) %MON forcing_empmr_max            =   5.2302461935749E-05
(PID.TID 0000.0001) %MON forcing_empmr_min            =  -1.3705199332603E-04
(PID.TID 0000.0001) %MON forcing_empmr_mean           =  -2.0432568138134E-22
(PID.TID 0000.0001) %MON forcing_empmr_sd             =   2.3550327612301E-05
(PID.TID 0000.0001) %MON forcing_empmr_del2           =   2.4956923451985E-07
(PID.TID 0000.0001) %MON forcing_fu_max               =   2.7701420846661E-01
(PID.TID 0000.0001) %MON forcing_fu_min               =  -1.8087394768562E-01
(PID.TID 0000.0001) %MON forcing_fu_mean              =   1.6572075947137E-02
(PID.TID 0000.0001) %MON forcing_fu_sd                =   9.0055718697089E-02
(PID.TID 0000.0001) %MON forcing_fu_del2              =   6.6704501397243E-04
(PID.TID 0000.0001) %MON forcing_fv_max               =   2.0424529544041E-01
(PID.TID 0000.0001) %MON forcing_fv_min               =  -1.6921520461693E-01
(PID.TID 0000.0001) %MON forcing_fv_mean              =  -5.8064618969417E-03
(PID.TID 0000.0001) %MON forcing_fv_sd                =   4.5841182947436E-02
(PID.TID 0000.0001) %MON forcing_fv_del2              =   4.4528292007770E-04
(PID.TID 0000.0001) %MON advcfl_uvel_max              =   1.0286791082538E-01
(PID.TID 0000.0001) %MON advcfl_vvel_max              =   5.0742925828221E-02
(PID.TID 0000.0001) %MON advcfl_wvel_max              =   1.3522098424069E-01
(PID.TID 0000.0001) %MON advcfl_W_hf_max              =   1.5309616850571E-01
(PID.TID 0000.0001) %MON pe_b_mean                    =  -8.1068000403562E-03
(PID.TID 0000.0001) %MON ke_max                       =   1.3408768110665E-02
(PID.TID 0000.0001) %MON ke_mean                      =   1.0393628280367E-04
(PID.TID 0000.0001) %MON ke_vol                       =   1.3442141716554E+22
(PID.TID 0000.0001) %MON vort_r_min                   =  -5.2212217651183E-07
(PID.TID 0000.0001) %MON vort_r_max                   =   4.7369037767123E-07
(PID.TID 0000.0001) %MON vort_a_mean                  =  -2.4531015079344E-05
(PID.TID 0000.0001) %MON vort_a_sd                    =   7.3436075745768E-05
(PID.TID 0000.0001) %MON vort_p_mean                  =  -2.9400449441122E-05
(PID.TID 0000.0001) %MON vort_p_sd                    =   1.0337471465959E-04
(PID.TID 0000.0001) %MON surfExpan_theta_mean         =  -5.6237898127066E-04
(PID.TID 0000.0001) %MON surfExpan_salt_mean          =  -6.0719560216615E-05
(PID.TID 0000.0001) // =======================================================
(PID.TID 0000.0001) // End MONITOR dynamic field statistics
(PID.TID 0000.0001) // =======================================================
time,SST,SSS,fu,fv,Q,E-P,i0,i1,a,b =   2.2464E+06  2.5764E+01  0.0000E+00 -6.9183E-03  2.3129E-02 -8.6001E+01 -5.1099E-06     1     2  3.6667E-01  6.3333E-01
time,fu0,fu1,fu =   2.2464E+06 -8.1474E-03 -4.7952E-03 -6.9183E-03  3.666666666666666E-01  6.333333333333333E-01
 cg2d: Sum(rhs),rhsMax =   4.16333634234434E-16  1.73000133309353E+02
(PID.TID 0000.0001)                    cg2d_init_res =    2.58982106877581E-03
(PID.TID 0000.0001)                       cg2d_iters =    88
(PID.TID 0000.0001)                         cg2d_res =    9.90439309411297E-10
(PID.TID 0000.0001) // =======================================================
(PID.TID 0000.0001) // Begin MONITOR dynamic field statistics
(PID.TID 0000.0001) // =======================================================
(PID.TID 0000.0001) %MON time_tsnumber                =                    14
(PID.TID 0000.0001) %MON time_secondsf                =   2.4192000000000E+06
(PID.TID 0000.0001) %MON dynstat_eta_max              =   4.3130349432432E+04
(PID.TID 0000.0001) %MON dynstat_eta_min              =  -9.2543847935428E+04
(PID.TID 0000.0001) %MON dynstat_eta_mean             =   2.6327163577973E-12
(PID.TID 0000.0001) %MON dynstat_eta_sd               =   3.9518138030590E+04
(PID.TID 0000.0001) %MON dynstat_eta_del2             =   2.1197762375061E+03
(PID.TID 0000.0001) %MON dynstat_uvel_max             =   1.6864670235869E-01
(PID.TID 0000.0001) %MON dynstat_uvel_min             =  -8.0147792603030E-02
(PID.TID 0000.0001) %MON dynstat_uvel_mean            =   1.7498660265208E-04
(PID.TID 0000.0001) %MON dynstat_uvel_sd              =   1.1516754224177E-02
(PID.TID 0000.0001) %MON dynstat_uvel_del2            =   8.8106118163381E-05
(PID.TID 0000.0001) %MON dynstat_vvel_max             =   9.0171689009380E-02
(PID.TID 0000.0001) %MON dynstat_vvel_min             =  -1.3248138445938E-01
(PID.TID 0000.0001) %MON dynstat_vvel_mean            =   1.2620485285099E-05
(PID.TID 0000.0001) %MON dynstat_vvel_sd              =   1.0963856909644E-02
(PID.TID 0000.0001) %MON dynstat_vvel_del2            =   1.1197962259801E-04
(PID.TID 0000.0001) %MON dynstat_wvel_max             =   2.5417830352371E+00
(PID.TID 0000.0001) %MON dynstat_wvel_min             =  -1.5095906540533E+00
(PID.TID 0000.0001) %MON dynstat_wvel_mean            =   2.1246847047550E-04
(PID.TID 0000.0001) %MON dynstat_wvel_sd              =   2.3537278331754E-01
(PID.TID 0000.0001) %MON dynstat_wvel_del2            =   3.1844916841627E-03
(PID.TID 0000.0001) %MON dynstat_theta_max            =   2.9976388203369E+01
(PID.TID 0000.0001) %MON dynstat_theta_min            =  -3.1177032112096E+00
(PID.TID 0000.0001) %MON dynstat_theta_mean           =   3.6035224450901E+00
(PID.TID 0000.0001) %MON dynstat_theta_sd             =   4.4026037339927E+00
(PID.TID 0000.0001) %MON dynstat_theta_del2           =   5.0071897417243E-03
(PID.TID 0000.0001) %MON dynstat_salt_max             =   3.7433056570116E+01
(PID.TID 0000.0001) %MON dynstat_salt_min             =   2.9770747311641E+01
(PID.TID 0000.0001) %MON dynstat_salt_mean            =   3.4718001119871E+01
(PID.TID 0000.0001) %MON dynstat_salt_sd              =   2.9440977182251E-01
(PID.TID 0000.0001) %MON dynstat_salt_del2            =   1.0325458469883E-03
(PID.TID 0000.0001) %MON forcing_qnet_max             =   4.2575218179855E+02
(PID.TID 0000.0001) %MON forcing_qnet_min             =  -1.9103782225161E+02
(PID.TID 0000.0001) %MON forcing_qnet_mean            =  -1.6050523244044E+01
(PID.TID 0000.0001) %MON forcing_qnet_sd              =   1.0504136369343E+02
(PID.TID 0000.0001) %MON forcing_qnet_del2            =   6.9794236533440E-01
(PID.TID 0000.0001) %MON forcing_qsw_max              =   0.0000000000000E+00
(PID.TID 0000.0001) %MON forcing_qsw_min              =   0.0000000000000E+00
(PID.TID 0000.0001) %MON forcing_qsw_mean             =   0.0000000000000E+00
(PID.TID 0000.0001) %MON forcing_qsw_sd               =   0.0000000000000E+00
(PID.TID 0000.0001) %MON forcing_qsw_del2             =   0.0000000000000E+00
(PID.TID 0000.0001) %MON forcing_empmr_max            =   5.2302461935749E-05
(PID.TID 0000.0001) %MON forcing_empmr_min            =  -1.3705199332603E-04
(PID.TID 0000.0001) %MON forcing_empmr_mean           =  -2.0432568138134E-22
(PID.TID 0000.0001) %MON forcing_empmr_sd             =   2.3550327612301E-05
(PID.TID 0000.0001) %MON forcing_empmr_del2           =   2.4956923451985E-07
(PID.TID 0000.0001) %MON forcing_fu_max               =   2.7827951307352E-01
(PID.TID 0000.0001) %MON forcing_fu_min               =  -1.8419379566072E-01
(PID.TID 0000.0001) %MON forcing_fu_mean              =   1.6681950667438E-02
(PID.TID 0000.0001) %MON forcing_fu_sd                =   9.0011085349644E-02
(PID.TID 0000.0001) %MON forcing_fu_del2              =   6.6256853162117E-04
(PID.TID 0000.0001) %MON forcing_fv_max               =   1.9782840103172E-01
(PID.TID 0000.0001) %MON forcing_fv_min               =  -1.6723260512150E-01
(PID.TID 0000.0001) %MON forcing_fv_mean              =  -5.9384820218404E-03
(PID.TID 0000.0001) %MON forcing_fv_sd                =   4.5463770378877E-02
(PID.TID 0000.0001) %MON forcing_fv_del2              =   4.4233489700273E-04
(PID.TID 0000.0001) %MON advcfl_uvel_max              =   1.0783263609304E-01
(PID.TID 0000.0001) %MON advcfl_vvel_max              =   5.1478016508999E-02
(PID.TID 0000.0001) %MON advcfl_wvel_max              =   1.3047507066500E-01
(PID.TID 0000.0001) %MON advcfl_W_hf_max              =   1.4772288130048E-01
(PID.TID 0000.0001) %MON pe_b_mean                    =  -7.9407183445311E-03
(PID.TID 0000.0001) %MON ke_max                       =   1.4723606513878E-02
(PID.TID 0000.0001) %MON ke_mean                      =   1.1396149439222E-04
(PID.TID 0000.0001) %MON ke_vol                       =   1.3442141716554E+22
(PID.TID 0000.0001) %MON vort_r_min                   =  -5.1424718106416E-07
(PID.TID 0000.0001) %MON vort_r_max                   =   4.6596725027260E-07
(PID.TID 0000.0001) %MON vort_a_mean                  =  -2.4531015083785E-05
(PID.TID 0000.0001) %MON vort_a_sd                    =   7.3436058762436E-05
(PID.TID 0000.0001) %MON vort_p_mean                  =  -2.9400455796043E-05
(PID.TID 0000.0001) %MON vort_p_sd                    =   1.0337495436562E-04
(PID.TID 0000.0001) %MON surfExpan_theta_mean         =   4.9182034776367E-04
(PID.TID 0000.0001) %MON surfExpan_salt_mean          =  -4.8021035785790E-05
(PID.TID 0000.0001) // =======================================================
(PID.TID 0000.0001) // End MONITOR dynamic field statistics
(PID.TID 0000.0001) // =======================================================
time,SST,SSS,fu,fv,Q,E-P,i0,i1,a,b =   2.4192E+06  2.5735E+01  0.0000E+00 -6.6948E-03  2.2974E-02 -8.4908E+01 -5.1099E-06     1     2  4.3333E-01  5.6667E-01
time,fu0,fu1,fu =   2.4192E+06 -8.1474E-03 -4.7952E-03 -6.6948E-03  4.333333333333333E-01  5.666666666666667E-01
 cg2d: Sum(rhs),rhsMax =   2.49800180540660E-16  1.72998525534674E+02
(PID.TID 0000.0001)                    cg2d_init_res =    2.55875605920686E-03
(PID.TID 0000.0001)                       cg2d_iters =    89
(PID.TID 0000.0001)                         cg2d_res =    8.26173311066046E-10
(PID.TID 0000.0001) // =======================================================
(PID.TID 0000.0001) // Begin MONITOR dynamic field statistics
(PID.TID 0000.0001) // =======================================================
(PID.TID 0000.0001) %MON time_tsnumber                =                    15
(PID.TID 0000.0001) %MON time_secondsf                =   2.5920000000000E+06
(PID.TID 0000.0001) %MON dynstat_eta_max              =   4.4277557427566E+04
(PID.TID 0000.0001) %MON dynstat_eta_min              =  -9.2733467085830E+04
(PID.TID 0000.0001) %MON dynstat_eta_mean             =  -4.3878605963288E-12
(PID.TID 0000.0001) %MON dynstat_eta_sd               =   3.9586755547155E+04
(PID.TID 0000.0001) %MON dynstat_eta_del2             =   2.1197357369958E+03
(PID.TID 0000.0001) %MON dynstat_uvel_max             =   1.7649601939235E-01
(PID.TID 0000.0001) %MON dynstat_uvel_min             =  -8.4708151908262E-02
(PID.TID 0000.0001) %MON dynstat_uvel_mean            =   1.8251627153766E-04
(PID.TID 0000.0001) %MON dynstat_uvel_sd              =   1.2446883134125E-02
(PID.TID 0000.0001) %MON dynstat_uvel_del2            =   9.1518702019642E-05
(PID.TID 0000.0001) %MON dynstat_vvel_max             =   8.8470220976967E-02
(PID.TID 0000.0001) %MON dynstat_vvel_min             =  -1.3287684490079E-01
(PID.TID 0000.0001) %MON dynstat_vvel_mean            =   3.2428083846693E-05
(PID.TID 0000.0001) %MON dynstat_vvel_sd              =   1.0900890548114E-02
(PID.TID 0000.0001) %MON dynstat_vvel_del2            =   1.1111850741358E-04
(PID.TID 0000.0001) %MON dynstat_wvel_max             =   2.6569986009419E+00
(PID.TID 0000.0001) %MON dynstat_wvel_min             =  -1.5542447714974E+00
(PID.TID 0000.0001) %MON dynstat_wvel_mean            =   1.2982733616237E-04
(PID.TID 0000.0001) %MON dynstat_wvel_sd              =   2.2947109444391E-01
(PID.TID 0000.0001) %MON dynstat_wvel_del2            =   3.1066363571557E-03
(PID.TID 0000.0001) %MON dynstat_theta_max            =   2.9989505634708E+01
(PID.TID 0000.0001) %MON dynstat_theta_min            =  -3.1632136649744E+00
(PID.TID 0000.0001) %MON dynstat_theta_mean           =   3.6036149441020E+00
(PID.TID 0000.0001) %MON dynstat_theta_sd             =   4.4028297791161E+00
(PID.TID 0000.0001) %MON dynstat_theta_del2           =   5.0162122325357E-03
(PID.TID 0000.0001) %MON dynstat_salt_max             =   3.7433071109789E+01
(PID.TID 0000.0001) %MON dynstat_salt_min             =   2.9769582501886E+01
(PID.TID 0000.0001) %MON dynstat_salt_mean            =   3.4718001087690E+01
(PID.TID 0000.0001) %MON dynstat_salt_sd              =   2.9440917126714E-01
(PID.TID 0000.0001) %MON dynstat_salt_del2            =   1.0351191295781E-03
(PID.TID 0000.0001) %MON forcing_qnet_max             =   4.2355146990978E+02
(PID.TID 0000.0001) %MON forcing_qnet_min             =  -1.8945330640064E+02
(PID.TID 0000.0001) %MON forcing_qnet_mean            =  -1.6167353017229E+01
(PID.TID 0000.0001) %MON forcing_qnet_sd              =   1.0302340493407E+02
(PID.TID 0000.0001) %MON forcing_qnet_del2            =   6.9172363822900E-01
(PID.TID 0000.0001) %MON forcing_qsw_max              =   0.0000000000000E+00
(PID.TID 0000.0001) %MON forcing_qsw_min              =   0.0000000000000E+00
(PID.TID 0000.0001) %MON forcing_qsw_mean             =   0.0000000000000E+00
(PID.TID 0000.0001) %MON forcing_qsw_sd               =   0.0000000000000E+00
(PID.TID 0000.0001) %MON forcing_qsw_del2             =   0.0000000000000E+00
(PID.TID 0000.0001) %MON forcing_empmr_max            =   5.2302461935749E-05
(PID.TID 0000.0001) %MON forcing_empmr_min            =  -1.3705199332603E-04
(PID.TID 0000.0001) %MON forcing_empmr_mean           =   0.0000000000000E+00
(PID.TID 0000.0001) %MON forcing_empmr_sd             =   2.3550327612301E-05
(PID.TID 0000.0001) %MON forcing_empmr_del2           =   2.4956923451985E-07
(PID.TID 0000.0001) %MON forcing_fu_max               =   2.8105382984197E-01
(PID.TID 0000.0001) %MON forcing_fu_min               =  -1.8751364363583E-01
(PID.TID 0000.0001) %MON forcing_fu_mean              =   1.6791825387739E-02
(PID.TID 0000.0001) %MON forcing_fu_sd                =   9.0036894955837E-02
(PID.TID 0000.0001) %MON forcing_fu_del2              =   6.6060922781266E-04
(PID.TID 0000.0001) %MON forcing_fv_max               =   1.9141846475999E-01
(PID.TID 0000.0001) %MON forcing_fv_min               =  -1.6525000562607E-01
(PID.TID 0000.0001) %MON forcing_fv_mean              =  -6.0705021467390E-03
(PID.TID 0000.0001) %MON forcing_fv_sd                =   4.5146829053665E-02
(PID.TID 0000.0001) %MON forcing_fv_del2              =   4.4154630056010E-04
(PID.TID 0000.0001) %MON advcfl_uvel_max              =   1.1200194757417E-01
(PID.TID 0000.0001) %MON advcfl_vvel_max              =   5.1631679751688E-02
(PID.TID 0000.0001) %MON advcfl_wvel_max              =   1.2301862567851E-01
(PID.TID 0000.0001) %MON advcfl_W_hf_max              =   1.3928075107554E-01
(PID.TID 0000.0001) %MON pe_b_mean                    =  -7.8117792018183E-03
(PID.TID 0000.0001) %MON ke_max                       =   1.5944316281342E-02
(PID.TID 0000.0001) %MON ke_mean                      =   1.2343966804223E-04
(PID.TID 0000.0001) %MON ke_vol                       =   1.3442141716554E+22
(PID.TID 0000.0001) %MON vort_r_min                   =  -4.9078325924640E-07
(PID.TID 0000.0001) %MON vort_r_max                   =   4.9939631306570E-07
(PID.TID 0000.0001) %MON vort_a_mean                  =  -2.4531015159691E-05
(PID.TID 0000.0001) %MON vort_a_sd                    =   7.3436055895994E-05
(PID.TID 0000.0001) %MON vort_p_mean                  =  -2.9400485725271E-05
(PID.TID 0000.0001) %MON vort_p_sd                    =   1.0337537900527E-04
(PID.TID 0000.0001) %MON surfExpan_theta_mean         =   9.4215583250220E-04
(PID.TID 0000.0001) %MON surfExpan_salt_mean          =  -2.2423491676972E-05
(PID.TID 0000.0001) // =======================================================
(PID.TID 0000.0001) // End MONITOR dynamic field statistics
(PID.TID 0000.0001) // =======================================================
time,SST,SSS,fu,fv,Q,E-P,i0,i1,a,b =   2.5920E+06  2.5706E+01  0.0000E+00 -6.4713E-03  2.2818E-02 -8.3815E+01 -5.1099E-06     1     2  5.0000E-01  5.0000E-01
time,fu0,fu1,fu =   2.5920E+06 -8.1474E-03 -4.7952E-03 -6.4713E-03  5.000000000000000E-01  5.000000000000000E-01
 cg2d: Sum(rhs),rhsMax =  -2.60902410786912E-15  1.72995996103708E+02
(PID.TID 0000.0001)                    cg2d_init_res =    2.45004598324300E-03
(PID.TID 0000.0001)                       cg2d_iters =    89
(PID.TID 0000.0001)                         cg2d_res =    7.72745068523611E-10
(PID.TID 0000.0001) // =======================================================
(PID.TID 0000.0001) // Begin MONITOR dynamic field statistics
(PID.TID 0000.0001) // =======================================================
(PID.TID 0000.0001) %MON time_tsnumber                =                    16
(PID.TID 0000.0001) %MON time_secondsf                =   2.7648000000000E+06
(PID.TID 0000.0001) %MON dynstat_eta_max              =   4.6794281191252E+04
(PID.TID 0000.0001) %MON dynstat_eta_min              =  -9.2852417715010E+04
(PID.TID 0000.0001) %MON dynstat_eta_mean             =   8.3369351330247E-12
(PID.TID 0000.0001) %MON dynstat_eta_sd               =   3.9659553074784E+04
(PID.TID 0000.0001) %MON dynstat_eta_del2             =   2.1196853560690E+03
(PID.TID 0000.0001) %MON dynstat_uvel_max             =   1.8361114050684E-01
(PID.TID 0000.0001) %MON dynstat_uvel_min             =  -8.7966582058269E-02
(PID.TID 0000.0001) %MON dynstat_uvel_mean            =   2.4711658093206E-04
(PID.TID 0000.0001) %MON dynstat_uvel_sd              =   1.3322467847822E-02
(PID.TID 0000.0001) %MON dynstat_uvel_del2            =   9.5074581589796E-05
(PID.TID 0000.0001) %MON dynstat_vvel_max             =   8.9027606420006E-02
(PID.TID 0000.0001) %MON dynstat_vvel_min             =  -1.3178403206669E-01
(PID.TID 0000.0001) %MON dynstat_vvel_mean            =   1.7451854856628E-05
(PID.TID 0000.0001) %MON dynstat_vvel_sd              =   1.0756592866726E-02
(PID.TID 0000.0001) %MON dynstat_vvel_del2            =   1.0975775648575E-04
(PID.TID 0000.0001) %MON dynstat_wvel_max             =   2.7624244303180E+00
(PID.TID 0000.0001) %MON dynstat_wvel_min             =  -1.5762311441172E+00
(PID.TID 0000.0001) %MON dynstat_wvel_mean            =   6.7144239558550E-05
(PID.TID 0000.0001) %MON dynstat_wvel_sd              =   2.2284482746245E-01
(PID.TID 0000.0001) %MON dynstat_wvel_del2            =   3.0318460138838E-03
(PID.TID 0000.0001) %MON dynstat_theta_max            =   2.9997892395910E+01
(PID.TID 0000.0001) %MON dynstat_theta_min            =  -3.2040635769265E+00
(PID.TID 0000.0001) %MON dynstat_theta_mean           =   3.6037081495946E+00
(PID.TID 0000.0001) %MON dynstat_theta_sd             =   4.4030765829827E+00
(PID.TID 0000.0001) %MON dynstat_theta_del2           =   5.0264677962916E-03
(PID.TID 0000.0001) %MON dynstat_salt_max             =   3.7433209326493E+01
(PID.TID 0000.0001) %MON dynstat_salt_min             =   2.9768405473351E+01
(PID.TID 0000.0001) %MON dynstat_salt_mean            =   3.4718001021075E+01
(PID.TID 0000.0001) %MON dynstat_salt_sd              =   2.9441197954928E-01
(PID.TID 0000.0001) %MON dynstat_salt_del2            =   1.0377415957860E-03
(PID.TID 0000.0001) %MON forcing_qnet_max             =   4.2135075802102E+02
(PID.TID 0000.0001) %MON forcing_qnet_min             =  -1.8786879054966E+02
(PID.TID 0000.0001) %MON forcing_qnet_mean            =  -1.6284182790414E+01
(PID.TID 0000.0001) %MON forcing_qnet_sd              =   1.0109275077866E+02
(PID.TID 0000.0001) %MON forcing_qnet_del2            =   6.8738031584655E-01
(PID.TID 0000.0001) %MON forcing_qsw_max              =   0.0000000000000E+00
(PID.TID 0000.0001) %MON forcing_qsw_min              =   0.0000000000000E+00
(PID.TID 0000.0001) %MON forcing_qsw_mean             =   0.0000000000000E+00
(PID.TID 0000.0001) %MON forcing_qsw_sd               =   0.0000000000000E+00
(PID.TID 0000.0001) %MON forcing_qsw_del2             =   0.0000000000000E+00
(PID.TID 0000.0001) %MON forcing_empmr_max            =   5.2302461935749E-05
(PID.TID 0000.0001) %MON forcing_empmr_min            =  -1.3705199332603E-04
(PID.TID 0000.0001) %MON forcing_empmr_mean           =   0.0000000000000E+00
(PID.TID 0000.0001) %MON forcing_empmr_sd             =   2.3550327612301E-05
(PID.TID 0000.0001) %MON forcing_empmr_del2           =   2.4956923451985E-07
(PID.TID 0000.0001) %MON forcing_fu_max               =   2.8382814661043E-01
(PID.TID 0000.0001) %MON forcing_fu_min               =  -1.9083349161093E-01
(PID.TID 0000.0001) %MON forcing_fu_mean              =   1.6901700108040E-02
(PID.TID 0000.0001) %MON forcing_fu_sd                =   9.0133087001675E-02
(PID.TID 0000.0001) %MON forcing_fu_del2              =   6.6118948040277E-04
(PID.TID 0000.0001) %MON forcing_fv_max               =   1.8921542366079E-01
(PID.TID 0000.0001) %MON forcing_fv_min               =  -1.6326740613065E-01
(PID.TID 0000.0001) %MON forcing_fv_mean              =  -6.2025222716376E-03
(PID.TID 0000.0001) %MON forcing_fv_sd                =   4.4891639796661E-02
(PID.TID 0000.0001) %MON forcing_fv_del2              =   4.4292866492091E-04
(PID.TID 0000.0001) %MON advcfl_uvel_max              =   1.1531558951553E-01
(PID.TID 0000.0001) %MON advcfl_vvel_max              =   5.1207047737575E-02
(PID.TID 0000.0001) %MON advcfl_wvel_max              =   1.1296465544033E-01
(PID.TID 0000.0001) %MON advcfl_W_hf_max              =   1.2789772254354E-01
(PID.TID 0000.0001) %MON pe_b_mean                    =  -7.7299940471086E-03
(PID.TID 0000.0001) %MON ke_max                       =   1.7054210509448E-02
(PID.TID 0000.0001) %MON ke_mean                      =   1.3226873554827E-04
(PID.TID 0000.0001) %MON ke_vol                       =   1.3442141716554E+22
(PID.TID 0000.0001) %MON vort_r_min                   =  -4.8621916463394E-07
(PID.TID 0000.0001) %MON vort_r_max                   =   5.2699532503517E-07
(PID.TID 0000.0001) %MON vort_a_mean                  =  -2.4531015285165E-05
(PID.TID 0000.0001) %MON vort_a_sd                    =   7.3436065590537E-05
(PID.TID 0000.0001) %MON vort_p_mean                  =  -2.9400527430083E-05
(PID.TID 0000.0001) %MON vort_p_sd                    =   1.0337585330297E-04
(PID.TID 0000.0001) %MON surfExpan_theta_mean         =   8.6641304730238E-04
(PID.TID 0000.0001) %MON surfExpan_salt_mean          =   1.2431349155585E-05
(PID.TID 0000.0001) // =======================================================
(PID.TID 0000.0001) // End MONITOR dynamic field statistics
(PID.TID 0000.0001) // =======================================================
time,SST,SSS,fu,fv,Q,E-P,i0,i1,a,b =   2.7648E+06  2.5677E+01  0.0000E+00 -6.2478E-03  2.2663E-02 -8.2722E+01 -5.1099E-06     1     2  5.6667E-01  4.3333E-01
time,fu0,fu1,fu =   2.7648E+06 -8.1474E-03 -4.7952E-03 -6.2478E-03  5.666666666666667E-01  4.333333333333333E-01
 cg2d: Sum(rhs),rhsMax =   2.49800180540660E-16  1.72993040256319E+02
(PID.TID 0000.0001)                    cg2d_init_res =    2.30541876422821E-03
(PID.TID 0000.0001)                       cg2d_iters =    86
(PID.TID 0000.0001)                         cg2d_res =    9.81687325060540E-10
(PID.TID 0000.0001) // =======================================================
(PID.TID 0000.0001) // Begin MONITOR dynamic field statistics
(PID.TID 0000.0001) // =======================================================
(PID.TID 0000.0001) %MON time_tsnumber                =                    17
(PID.TID 0000.0001) %MON time_secondsf                =   2.9376000000000E+06
(PID.TID 0000.0001) %MON dynstat_eta_max              =   4.8397700407459E+04
(PID.TID 0000.0001) %MON dynstat_eta_min              =  -9.2898656575503E+04
(PID.TID 0000.0001) %MON dynstat_eta_mean             =   5.2654327155946E-12
(PID.TID 0000.0001) %MON dynstat_eta_sd               =   3.9709954281291E+04
(PID.TID 0000.0001) %MON dynstat_eta_del2             =   2.1196290951613E+03
(PID.TID 0000.0001) %MON dynstat_uvel_max             =   1.9111359462759E-01
(PID.TID 0000.0001) %MON dynstat_uvel_min             =  -9.0954938763130E-02
(PID.TID 0000.0001) %MON dynstat_uvel_mean            =   3.4889421677649E-04
(PID.TID 0000.0001) %MON dynstat_uvel_sd              =   1.4133155151898E-02
(PID.TID 0000.0001) %MON dynstat_uvel_del2            =   9.8728359713476E-05
(PID.TID 0000.0001) %MON dynstat_vvel_max             =   9.2079680242985E-02
(PID.TID 0000.0001) %MON dynstat_vvel_min             =  -1.2922148220298E-01
(PID.TID 0000.0001) %MON dynstat_vvel_mean            =  -1.5116171193497E-05
(PID.TID 0000.0001) %MON dynstat_vvel_sd              =   1.0551702154555E-02
(PID.TID 0000.0001) %MON dynstat_vvel_del2            =   1.0813182816725E-04
(PID.TID 0000.0001) %MON dynstat_wvel_max             =   2.8571719000964E+00
(PID.TID 0000.0001) %MON dynstat_wvel_min             =  -1.5799271238161E+00
(PID.TID 0000.0001) %MON dynstat_wvel_mean            =   2.3401855431633E-05
(PID.TID 0000.0001) %MON dynstat_wvel_sd              =   2.1606696183848E-01
(PID.TID 0000.0001) %MON dynstat_wvel_del2            =   2.9658114334568E-03
(PID.TID 0000.0001) %MON dynstat_theta_max            =   3.0001531396356E+01
(PID.TID 0000.0001) %MON dynstat_theta_min            =  -3.2403190640914E+00
(PID.TID 0000.0001) %MON dynstat_theta_mean           =   3.6038021613748E+00
(PID.TID 0000.0001) %MON dynstat_theta_sd             =   4.4033397598776E+00
(PID.TID 0000.0001) %MON dynstat_theta_del2           =   5.0356867314507E-03
(PID.TID 0000.0001) %MON dynstat_salt_max             =   3.7433482269853E+01
(PID.TID 0000.0001) %MON dynstat_salt_min             =   2.9767151022193E+01
(PID.TID 0000.0001) %MON dynstat_salt_mean            =   3.4718000930412E+01
(PID.TID 0000.0001) %MON dynstat_salt_sd              =   2.9441324629593E-01
(PID.TID 0000.0001) %MON dynstat_salt_del2            =   1.0412175362632E-03
(PID.TID 0000.0001) %MON forcing_qnet_max             =   4.1915004613225E+02
(PID.TID 0000.0001) %MON forcing_qnet_min             =  -1.8628427469869E+02
(PID.TID 0000.0001) %MON forcing_qnet_mean            =  -1.6401012563599E+01
(PID.TID 0000.0001) %MON forcing_qnet_sd              =   9.9254495988507E+01
(PID.TID 0000.0001) %MON forcing_qnet_del2            =   6.8494807548763E-01
(PID.TID 0000.0001) %MON forcing_qsw_max              =   0.0000000000000E+00
(PID.TID 0000.0001) %MON forcing_qsw_min              =   0.0000000000000E+00
(PID.TID 0000.0001) %MON forcing_qsw_mean             =   0.0000000000000E+00
(PID.TID 0000.0001) %MON forcing_qsw_sd               =   0.0000000000000E+00
(PID.TID 0000.0001) %MON forcing_qsw_del2             =   0.0000000000000E+00
(PID.TID 0000.0001) %MON forcing_empmr_max            =   5.2302461935749E-05
(PID.TID 0000.0001) %MON forcing_empmr_min            =  -1.3705199332603E-04
(PID.TID 0000.0001) %MON forcing_empmr_mean           =   0.0000000000000E+00
(PID.TID 0000.0001) %MON forcing_empmr_sd             =   2.3550327612301E-05
(PID.TID 0000.0001) %MON forcing_empmr_del2           =   2.4956923451985E-07
(PID.TID 0000.0001) %MON forcing_fu_max               =   2.8660246337888E-01
(PID.TID 0000.0001) %MON forcing_fu_min               =  -1.9415333958603E-01
(PID.TID 0000.0001) %MON forcing_fu_mean              =   1.7011574828341E-02
(PID.TID 0000.0001) %MON forcing_fu_sd                =   9.0299436561422E-02
(PID.TID 0000.0001) %MON forcing_fu_del2              =   6.6430263469806E-04
(PID.TID 0000.0001) %MON forcing_fv_max               =   1.8701238256158E-01
(PID.TID 0000.0001) %MON forcing_fv_min               =  -1.6128480663522E-01
(PID.TID 0000.0001) %MON forcing_fv_mean              =  -6.3345423965362E-03
(PID.TID 0000.0001) %MON forcing_fv_sd                =   4.4699260252941E-02
(PID.TID 0000.0001) %MON forcing_fv_del2              =   4.4646182492720E-04
(PID.TID 0000.0001) %MON advcfl_uvel_max              =   1.1859137883911E-01
(PID.TID 0000.0001) %MON advcfl_vvel_max              =   5.0211323057256E-02
(PID.TID 0000.0001) %MON advcfl_wvel_max              =   1.0050714919972E-01
(PID.TID 0000.0001) %MON advcfl_W_hf_max              =   1.1379342885509E-01
(PID.TID 0000.0001) %MON pe_b_mean                    =  -7.7031438858301E-03
(PID.TID 0000.0001) %MON ke_max                       =   1.8043054369062E-02
(PID.TID 0000.0001) %MON ke_mean                      =   1.4041854322612E-04
(PID.TID 0000.0001) %MON ke_vol                       =   1.3442141716554E+22
(PID.TID 0000.0001) %MON vort_r_min                   =  -5.1068960081986E-07
(PID.TID 0000.0001) %MON vort_r_max                   =   5.4893990899271E-07
(PID.TID 0000.0001) %MON vort_a_mean                  =  -2.4531015432004E-05
(PID.TID 0000.0001) %MON vort_a_sd                    =   7.3436083530670E-05
(PID.TID 0000.0001) %MON vort_p_mean                  =  -2.9400569150316E-05
(PID.TID 0000.0001) %MON vort_p_sd                    =   1.0337625314537E-04
(PID.TID 0000.0001) %MON surfExpan_theta_mean         =   4.6690004892011E-04
(PID.TID 0000.0001) %MON surfExpan_salt_mean          =   5.0670061620440E-05
(PID.TID 0000.0001) // =======================================================
(PID.TID 0000.0001) // End MONITOR dynamic field statistics
(PID.TID 0000.0001) // =======================================================
time,SST,SSS,fu,fv,Q,E-P,i0,i1,a,b =   2.9376E+06  2.5648E+01  0.0000E+00 -6.0243E-03  2.2508E-02 -8.1629E+01 -5.1099E-06     1     2  6.3333E-01  3.6667E-01
time,fu0,fu1,fu =   2.9376E+06 -8.1474E-03 -4.7952E-03 -6.0243E-03  6.333333333333333E-01  3.666666666666667E-01
 cg2d: Sum(rhs),rhsMax =  -2.58126853225349E-15  1.72989785371779E+02
(PID.TID 0000.0001)                    cg2d_init_res =    2.20659019745324E-03
(PID.TID 0000.0001)                       cg2d_iters =    84
(PID.TID 0000.0001)                         cg2d_res =    8.42516148403144E-10
(PID.TID 0000.0001) // =======================================================
(PID.TID 0000.0001) // Begin MONITOR dynamic field statistics
(PID.TID 0000.0001) // =======================================================
(PID.TID 0000.0001) %MON time_tsnumber                =                    18
(PID.TID 0000.0001) %MON time_secondsf                =   3.1104000000000E+06
(PID.TID 0000.0001) %MON dynstat_eta_max              =   4.8839797350675E+04
(PID.TID 0000.0001) %MON dynstat_eta_min              =  -9.2835081580991E+04
(PID.TID 0000.0001) %MON dynstat_eta_mean             =   5.7042187752274E-12
(PID.TID 0000.0001) %MON dynstat_eta_sd               =   3.9723824925627E+04
(PID.TID 0000.0001) %MON dynstat_eta_del2             =   2.1195714396914E+03
(PID.TID 0000.0001) %MON dynstat_uvel_max             =   1.9708018911632E-01
(PID.TID 0000.0001) %MON dynstat_uvel_min             =  -9.4854823644749E-02
(PID.TID 0000.0001) %MON dynstat_uvel_mean            =   4.6345016515792E-04
(PID.TID 0000.0001) %MON dynstat_uvel_sd              =   1.4870027158621E-02
(PID.TID 0000.0001) %MON dynstat_uvel_del2            =   1.0240028783210E-04
(PID.TID 0000.0001) %MON dynstat_vvel_max             =   9.4660578819165E-02
(PID.TID 0000.0001) %MON dynstat_vvel_min             =  -1.2522698176899E-01
(PID.TID 0000.0001) %MON dynstat_vvel_mean            =  -4.6962118299095E-05
(PID.TID 0000.0001) %MON dynstat_vvel_sd              =   1.0309654034891E-02
(PID.TID 0000.0001) %MON dynstat_vvel_del2            =   1.0646924062630E-04
(PID.TID 0000.0001) %MON dynstat_wvel_max             =   2.9402426645680E+00
(PID.TID 0000.0001) %MON dynstat_wvel_min             =  -1.6420992878972E+00
(PID.TID 0000.0001) %MON dynstat_wvel_mean            =  -8.0130759587286E-06
(PID.TID 0000.0001) %MON dynstat_wvel_sd              =   2.0968102586305E-01
(PID.TID 0000.0001) %MON dynstat_wvel_del2            =   2.9128025211148E-03
(PID.TID 0000.0001) %MON dynstat_theta_max            =   3.0000394316070E+01
(PID.TID 0000.0001) %MON dynstat_theta_min            =  -3.2720404114526E+00
(PID.TID 0000.0001) %MON dynstat_theta_mean           =   3.6038969453127E+00
(PID.TID 0000.0001) %MON dynstat_theta_sd             =   4.4036216985125E+00
(PID.TID 0000.0001) %MON dynstat_theta_del2           =   5.0425507362448E-03
(PID.TID 0000.0001) %MON dynstat_salt_max             =   3.7433893381994E+01
(PID.TID 0000.0001) %MON dynstat_salt_min             =   2.9765766861276E+01
(PID.TID 0000.0001) %MON dynstat_salt_mean            =   3.4718000829583E+01
(PID.TID 0000.0001) %MON dynstat_salt_sd              =   2.9441354768229E-01
(PID.TID 0000.0001) %MON dynstat_salt_del2            =   1.0434818795691E-03
(PID.TID 0000.0001) %MON forcing_qnet_max             =   4.1694933424348E+02
(PID.TID 0000.0001) %MON forcing_qnet_min             =  -1.8469975884772E+02
(PID.TID 0000.0001) %MON forcing_qnet_mean            =  -1.6517842336784E+01
(PID.TID 0000.0001) %MON forcing_qnet_sd              =   9.7513866224350E+01
(PID.TID 0000.0001) %MON forcing_qnet_del2            =   6.8444729102208E-01
(PID.TID 0000.0001) %MON forcing_qsw_max              =   0.0000000000000E+00
(PID.TID 0000.0001) %MON forcing_qsw_min              =   0.0000000000000E+00
(PID.TID 0000.0001) %MON forcing_qsw_mean             =   0.0000000000000E+00
(PID.TID 0000.0001) %MON forcing_qsw_sd               =   0.0000000000000E+00
(PID.TID 0000.0001) %MON forcing_qsw_del2             =   0.0000000000000E+00
(PID.TID 0000.0001) %MON forcing_empmr_max            =   5.2302461935749E-05
(PID.TID 0000.0001) %MON forcing_empmr_min            =  -1.3705199332603E-04
(PID.TID 0000.0001) %MON forcing_empmr_mean           =   0.0000000000000E+00
(PID.TID 0000.0001) %MON forcing_empmr_sd             =   2.3550327612301E-05
(PID.TID 0000.0001) %MON forcing_empmr_del2           =   2.4956923451985E-07
(PID.TID 0000.0001) %MON forcing_fu_max               =   2.8937678014733E-01
(PID.TID 0000.0001) %MON forcing_fu_min               =  -1.9747318756114E-01
(PID.TID 0000.0001) %MON forcing_fu_mean              =   1.7121449548642E-02
(PID.TID 0000.0001) %MON forcing_fu_sd                =   9.0535556914754E-02
(PID.TID 0000.0001) %MON forcing_fu_del2              =   6.6991337968855E-04
(PID.TID 0000.0001) %MON forcing_fv_max               =   1.8480934146237E-01
(PID.TID 0000.0001) %MON forcing_fv_min               =  -1.6478836967949E-01
(PID.TID 0000.0001) %MON forcing_fv_mean              =  -6.4665625214348E-03
(PID.TID 0000.0001) %MON forcing_fv_sd                =   4.4570503746109E-02
(PID.TID 0000.0001) %MON forcing_fv_del2              =   4.5209535749048E-04
(PID.TID 0000.0001) %MON advcfl_uvel_max              =   1.2349595409520E-01
(PID.TID 0000.0001) %MON advcfl_vvel_max              =   4.8659188316779E-02
(PID.TID 0000.0001) %MON advcfl_wvel_max              =   9.8317238458152E-02
(PID.TID 0000.0001) %MON advcfl_W_hf_max              =   1.0807609375023E-01
(PID.TID 0000.0001) %MON pe_b_mean                    =  -7.7317475589271E-03
(PID.TID 0000.0001) %MON ke_max                       =   1.8905522616293E-02
(PID.TID 0000.0001) %MON ke_mean                      =   1.4787618850937E-04
(PID.TID 0000.0001) %MON ke_vol                       =   1.3442141716554E+22
(PID.TID 0000.0001) %MON vort_r_min                   =  -5.3045929733074E-07
(PID.TID 0000.0001) %MON vort_r_max                   =   5.6585725357182E-07
(PID.TID 0000.0001) %MON vort_a_mean                  =  -2.4531015571304E-05
(PID.TID 0000.0001) %MON vort_a_sd                    =   7.3436104378978E-05
(PID.TID 0000.0001) %MON vort_p_mean                  =  -2.9400602151315E-05
(PID.TID 0000.0001) %MON vort_p_sd                    =   1.0337650145804E-04
(PID.TID 0000.0001) %MON surfExpan_theta_mean         =  -1.3002654637442E-05
(PID.TID 0000.0001) %MON surfExpan_salt_mean          =   8.5240730981028E-05
(PID.TID 0000.0001) // =======================================================
(PID.TID 0000.0001) // End MONITOR dynamic field statistics
(PID.TID 0000.0001) // =======================================================
time,SST,SSS,fu,fv,Q,E-P,i0,i1,a,b =   3.1104E+06  2.5619E+01  0.0000E+00 -5.8008E-03  2.2352E-02 -8.0536E+01 -5.1099E-06     1     2  7.0000E-01  3.0000E-01
time,fu0,fu1,fu =   3.1104E+06 -8.1474E-03 -4.7952E-03 -5.8008E-03  7.000000000000000E-01  3.000000000000000E-01
 cg2d: Sum(rhs),rhsMax =   8.04911692853238E-16  1.72986070228594E+02
(PID.TID 0000.0001)                    cg2d_init_res =    2.18087416823149E-03
(PID.TID 0000.0001)                       cg2d_iters =    87
(PID.TID 0000.0001)                         cg2d_res =    8.56315807874857E-10
(PID.TID 0000.0001) // =======================================================
(PID.TID 0000.0001) // Begin MONITOR dynamic field statistics
(PID.TID 0000.0001) // =======================================================
(PID.TID 0000.0001) %MON time_tsnumber                =                    19
(PID.TID 0000.0001) %MON time_secondsf                =   3.2832000000000E+06
(PID.TID 0000.0001) %MON dynstat_eta_max              =   4.8229235466519E+04
(PID.TID 0000.0001) %MON dynstat_eta_min              =  -9.2711945941054E+04
(PID.TID 0000.0001) %MON dynstat_eta_mean             =  -1.0530865431189E-11
(PID.TID 0000.0001) %MON dynstat_eta_sd               =   3.9703058715531E+04
(PID.TID 0000.0001) %MON dynstat_eta_del2             =   2.1195162718533E+03
(PID.TID 0000.0001) %MON dynstat_uvel_max             =   2.0143409891618E-01
(PID.TID 0000.0001) %MON dynstat_uvel_min             =  -9.8241665824183E-02
(PID.TID 0000.0001) %MON dynstat_uvel_mean            =   5.6898384070167E-04
(PID.TID 0000.0001) %MON dynstat_uvel_sd              =   1.5524123222983E-02
(PID.TID 0000.0001) %MON dynstat_uvel_del2            =   1.0598760066048E-04
(PID.TID 0000.0001) %MON dynstat_vvel_max             =   9.6793844585738E-02
(PID.TID 0000.0001) %MON dynstat_vvel_min             =  -1.1986427087266E-01
(PID.TID 0000.0001) %MON dynstat_vvel_mean            =  -6.3743989698924E-05
(PID.TID 0000.0001) %MON dynstat_vvel_sd              =   1.0055315670067E-02
(PID.TID 0000.0001) %MON dynstat_vvel_del2            =   1.0497771085320E-04
(PID.TID 0000.0001) %MON dynstat_wvel_max             =   3.0108146413119E+00
(PID.TID 0000.0001) %MON dynstat_wvel_min             =  -1.7722314158011E+00
(PID.TID 0000.0001) %MON dynstat_wvel_mean            =  -3.4923481916957E-05
(PID.TID 0000.0001) %MON dynstat_wvel_sd              =   2.0414849603047E-01
(PID.TID 0000.0001) %MON dynstat_wvel_del2            =   2.8755529831017E-03
(PID.TID 0000.0001) %MON dynstat_theta_max            =   2.9994454185592E+01
(PID.TID 0000.0001) %MON dynstat_theta_min            =  -3.2992809765874E+00
(PID.TID 0000.0001) %MON dynstat_theta_mean           =   3.6039930767928E+00
(PID.TID 0000.0001) %MON dynstat_theta_sd             =   4.4039231957594E+00
(PID.TID 0000.0001) %MON dynstat_theta_del2           =   5.0486310472116E-03
(PID.TID 0000.0001) %MON dynstat_salt_max             =   3.7434438353784E+01
(PID.TID 0000.0001) %MON dynstat_salt_min             =   2.9764223398233E+01
(PID.TID 0000.0001) %MON dynstat_salt_mean            =   3.4718000738292E+01
(PID.TID 0000.0001) %MON dynstat_salt_sd              =   2.9441514491617E-01
(PID.TID 0000.0001) %MON dynstat_salt_del2            =   1.0460323097632E-03
(PID.TID 0000.0001) %MON forcing_qnet_max             =   4.1474862235472E+02
(PID.TID 0000.0001) %MON forcing_qnet_min             =  -1.8311524299675E+02
(PID.TID 0000.0001) %MON forcing_qnet_mean            =  -1.6634672109969E+01
(PID.TID 0000.0001) %MON forcing_qnet_sd              =   9.5876178773768E+01
(PID.TID 0000.0001) %MON forcing_qnet_del2            =   6.8588219311561E-01
(PID.TID 0000.0001) %MON forcing_qsw_max              =   0.0000000000000E+00
(PID.TID 0000.0001) %MON forcing_qsw_min              =   0.0000000000000E+00
(PID.TID 0000.0001) %MON forcing_qsw_mean             =   0.0000000000000E+00
(PID.TID 0000.0001) %MON forcing_qsw_sd               =   0.0000000000000E+00
(PID.TID 0000.0001) %MON forcing_qsw_del2             =   0.0000000000000E+00
(PID.TID 0000.0001) %MON forcing_empmr_max            =   5.2302461935749E-05
(PID.TID 0000.0001) %MON forcing_empmr_min            =  -1.3705199332603E-04
(PID.TID 0000.0001) %MON forcing_empmr_mean           =   2.0432568138134E-22
(PID.TID 0000.0001) %MON forcing_empmr_sd             =   2.3550327612301E-05
(PID.TID 0000.0001) %MON forcing_empmr_del2           =   2.4956923451985E-07
(PID.TID 0000.0001) %MON forcing_fu_max               =   2.9215109691579E-01
(PID.TID 0000.0001) %MON forcing_fu_min               =  -2.0079303553624E-01
(PID.TID 0000.0001) %MON forcing_fu_mean              =   1.7231324268943E-02
(PID.TID 0000.0001) %MON forcing_fu_sd                =   9.0840904003179E-02
(PID.TID 0000.0001) %MON forcing_fu_del2              =   6.7795970857576E-04
(PID.TID 0000.0001) %MON forcing_fv_max               =   1.8260630036316E-01
(PID.TID 0000.0001) %MON forcing_fv_min               =  -1.7113216759969E-01
(PID.TID 0000.0001) %MON forcing_fv_mean              =  -6.5985826463334E-03
(PID.TID 0000.0001) %MON forcing_fv_sd                =   4.4505922467671E-02
(PID.TID 0000.0001) %MON forcing_fv_del2              =   4.5975205888607E-04
(PID.TID 0000.0001) %MON advcfl_uvel_max              =   1.2720730708574E-01
(PID.TID 0000.0001) %MON advcfl_vvel_max              =   4.6575410877550E-02
(PID.TID 0000.0001) %MON advcfl_wvel_max              =   9.7950375138475E-02
(PID.TID 0000.0001) %MON advcfl_W_hf_max              =   1.1349105424055E-01
(PID.TID 0000.0001) %MON pe_b_mean                    =  -7.8069150586274E-03
(PID.TID 0000.0001) %MON ke_max                       =   1.9639326758675E-02
(PID.TID 0000.0001) %MON ke_mean                      =   1.5460752472033E-04
(PID.TID 0000.0001) %MON ke_vol                       =   1.3442141716554E+22
(PID.TID 0000.0001) %MON vort_r_min                   =  -5.4517048250275E-07
(PID.TID 0000.0001) %MON vort_r_max                   =   5.7854493911128E-07
(PID.TID 0000.0001) %MON vort_a_mean                  =  -2.4531015679437E-05
(PID.TID 0000.0001) %MON vort_a_sd                    =   7.3436123363413E-05
(PID.TID 0000.0001) %MON vort_p_mean                  =  -2.9400621949157E-05
(PID.TID 0000.0001) %MON vort_p_sd                    =   1.0337655970638E-04
(PID.TID 0000.0001) %MON surfExpan_theta_mean         =  -3.6190357794463E-04
(PID.TID 0000.0001) %MON surfExpan_salt_mean          =   1.1058119246350E-04
(PID.TID 0000.0001) // =======================================================
(PID.TID 0000.0001) // End MONITOR dynamic field statistics
(PID.TID 0000.0001) // =======================================================
time,SST,SSS,fu,fv,Q,E-P,i0,i1,a,b =   3.2832E+06  2.5590E+01  0.0000E+00 -5.5774E-03  2.2197E-02 -7.9443E+01 -5.1099E-06     1     2  7.6667E-01  2.3333E-01
time,fu0,fu1,fu =   3.2832E+06 -8.1474E-03 -4.7952E-03 -5.5774E-03  7.666666666666667E-01  2.333333333333333E-01
 cg2d: Sum(rhs),rhsMax =  -7.21644966006352E-16  1.72981576348329E+02
(PID.TID 0000.0001)                    cg2d_init_res =    2.20692022818584E-03
(PID.TID 0000.0001)                       cg2d_iters =    88
(PID.TID 0000.0001)                         cg2d_res =    8.51143404399607E-10
(PID.TID 0000.0001) // =======================================================
(PID.TID 0000.0001) // Begin MONITOR dynamic field statistics
(PID.TID 0000.0001) // =======================================================
(PID.TID 0000.0001) %MON time_tsnumber                =                    20
(PID.TID 0000.0001) %MON time_secondsf                =   3.4560000000000E+06
(PID.TID 0000.0001) %MON dynstat_eta_max              =   4.6923755566763E+04
(PID.TID 0000.0001) %MON dynstat_eta_min              =  -9.2591311076548E+04
(PID.TID 0000.0001) %MON dynstat_eta_mean             =   6.1430048348603E-12
(PID.TID 0000.0001) %MON dynstat_eta_sd               =   3.9661606018525E+04
(PID.TID 0000.0001) %MON dynstat_eta_del2             =   2.1194669985057E+03
(PID.TID 0000.0001) %MON dynstat_uvel_max             =   2.0411955491421E-01
(PID.TID 0000.0001) %MON dynstat_uvel_min             =  -1.0098807877477E-01
(PID.TID 0000.0001) %MON dynstat_uvel_mean            =   6.5111787855574E-04
(PID.TID 0000.0001) %MON dynstat_uvel_sd              =   1.6086617874725E-02
(PID.TID 0000.0001) %MON dynstat_uvel_del2            =   1.0938156128255E-04
(PID.TID 0000.0001) %MON dynstat_vvel_max             =   9.8623905945315E-02
(PID.TID 0000.0001) %MON dynstat_vvel_min             =  -1.1322676404750E-01
(PID.TID 0000.0001) %MON dynstat_vvel_mean            =  -5.8074098481291E-05
(PID.TID 0000.0001) %MON dynstat_vvel_sd              =   9.8138405532784E-03
(PID.TID 0000.0001) %MON dynstat_vvel_del2            =   1.0382550255645E-04
(PID.TID 0000.0001) %MON dynstat_wvel_max             =   3.0683920703172E+00
(PID.TID 0000.0001) %MON dynstat_wvel_min             =  -1.8892982265967E+00
(PID.TID 0000.0001) %MON dynstat_wvel_mean            =  -6.2876924650344E-05
(PID.TID 0000.0001) %MON dynstat_wvel_sd              =   1.9980533496949E-01
(PID.TID 0000.0001) %MON dynstat_wvel_del2            =   2.8548587998321E-03
(PID.TID 0000.0001) %MON dynstat_theta_max            =   2.9983694727840E+01
(PID.TID 0000.0001) %MON dynstat_theta_min            =  -3.3220893382377E+00
(PID.TID 0000.0001) %MON dynstat_theta_mean           =   3.6040904935579E+00
(PID.TID 0000.0001) %MON dynstat_theta_sd             =   4.4042445627075E+00
(PID.TID 0000.0001) %MON dynstat_theta_del2           =   5.0485348916863E-03
(PID.TID 0000.0001) %MON dynstat_salt_max             =   3.7435309713017E+01
(PID.TID 0000.0001) %MON dynstat_salt_min             =   2.9762517724471E+01
(PID.TID 0000.0001) %MON dynstat_salt_mean            =   3.4718000671122E+01
(PID.TID 0000.0001) %MON dynstat_salt_sd              =   2.9441581457637E-01
(PID.TID 0000.0001) %MON dynstat_salt_del2            =   1.0479083761128E-03
(PID.TID 0000.0001) %MON forcing_qnet_max             =   4.1262853656621E+02
(PID.TID 0000.0001) %MON forcing_qnet_min             =  -1.8377875812820E+02
(PID.TID 0000.0001) %MON forcing_qnet_mean            =  -1.6751501883154E+01
(PID.TID 0000.0001) %MON forcing_qnet_sd              =   9.4346794458794E+01
(PID.TID 0000.0001) %MON forcing_qnet_del2            =   6.8924069239349E-01
(PID.TID 0000.0001) %MON forcing_qsw_max              =   0.0000000000000E+00
(PID.TID 0000.0001) %MON forcing_qsw_min              =   0.0000000000000E+00
(PID.TID 0000.0001) %MON forcing_qsw_mean             =   0.0000000000000E+00
(PID.TID 0000.0001) %MON forcing_qsw_sd               =   0.0000000000000E+00
(PID.TID 0000.0001) %MON forcing_qsw_del2             =   0.0000000000000E+00
(PID.TID 0000.0001) %MON forcing_empmr_max            =   5.2302461935749E-05
(PID.TID 0000.0001) %MON forcing_empmr_min            =  -1.3705199332603E-04
(PID.TID 0000.0001) %MON forcing_empmr_mean           =   2.0432568138134E-22
(PID.TID 0000.0001) %MON forcing_empmr_sd             =   2.3550327612301E-05
(PID.TID 0000.0001) %MON forcing_empmr_del2           =   2.4956923451985E-07
(PID.TID 0000.0001) %MON forcing_fu_max               =   2.9492541368424E-01
(PID.TID 0000.0001) %MON forcing_fu_min               =  -2.0411288351134E-01
(PID.TID 0000.0001) %MON forcing_fu_mean              =   1.7341198989244E-02
(PID.TID 0000.0001) %MON forcing_fu_sd                =   9.1214782607099E-02
(PID.TID 0000.0001) %MON forcing_fu_del2              =   6.8835621662477E-04
(PID.TID 0000.0001) %MON forcing_fv_max               =   1.8680120908603E-01
(PID.TID 0000.0001) %MON forcing_fv_min               =  -1.7747596551990E-01
(PID.TID 0000.0001) %MON forcing_fv_mean              =  -6.7306027712320E-03
(PID.TID 0000.0001) %MON forcing_fv_sd                =   4.4505795787846E-02
(PID.TID 0000.0001) %MON forcing_fv_del2              =   4.6933292157477E-04
(PID.TID 0000.0001) %MON advcfl_uvel_max              =   1.2962708213948E-01
(PID.TID 0000.0001) %MON advcfl_vvel_max              =   4.3996288630913E-02
(PID.TID 0000.0001) %MON advcfl_wvel_max              =   9.7080269593954E-02
(PID.TID 0000.0001) %MON advcfl_W_hf_max              =   1.1791007026398E-01
(PID.TID 0000.0001) %MON pe_b_mean                    =  -7.9129881758596E-03
(PID.TID 0000.0001) %MON ke_max                       =   2.0362514366897E-02
(PID.TID 0000.0001) %MON ke_mean                      =   1.6055400777730E-04
(PID.TID 0000.0001) %MON ke_vol                       =   1.3442141716554E+22
(PID.TID 0000.0001) %MON vort_r_min                   =  -5.5457083974663E-07
(PID.TID 0000.0001) %MON vort_r_max                   =   5.8776391918876E-07
(PID.TID 0000.0001) %MON vort_a_mean                  =  -2.4531015741208E-05
(PID.TID 0000.0001) %MON vort_a_sd                    =   7.3436137361195E-05
(PID.TID 0000.0001) %MON vort_p_mean                  =  -2.9400628711556E-05
(PID.TID 0000.0001) %MON vort_p_sd                    =   1.0337644866085E-04
(PID.TID 0000.0001) %MON surfExpan_theta_mean         =  -4.5316595955864E-04
(PID.TID 0000.0001) %MON surfExpan_salt_mean          =   1.2308875786250E-04
(PID.TID 0000.0001) // =======================================================
(PID.TID 0000.0001) // End MONITOR dynamic field statistics
(PID.TID 0000.0001) // =======================================================
(PID.TID 0000.0001) %CHECKPOINT        20 ckptA
(PID.TID 0000.0001)   Seconds in section "ALL                    [THE_MODEL_MAIN]":
(PID.TID 0000.0001)           User time:   14.700000000000001
(PID.TID 0000.0001)         System time:  2.99999999999999989E-002
(PID.TID 0000.0001)     Wall clock time:   14.875428915023804
(PID.TID 0000.0001)          No. starts:           1
(PID.TID 0000.0001)           No. stops:           1
(PID.TID 0000.0001)   Seconds in section "INITIALISE_FIXED       [THE_MODEL_MAIN]":
(PID.TID 0000.0001)           User time:  0.10000000000000001
(PID.TID 0000.0001)         System time:   0.0000000000000000
(PID.TID 0000.0001)     Wall clock time:  0.12184786796569824
(PID.TID 0000.0001)          No. starts:           1
(PID.TID 0000.0001)           No. stops:           1
(PID.TID 0000.0001)   Seconds in section "THE_MAIN_LOOP          [THE_MODEL_MAIN]":
(PID.TID 0000.0001)           User time:   14.600000000000001
(PID.TID 0000.0001)         System time:  2.99999999999999989E-002
(PID.TID 0000.0001)     Wall clock time:   14.753523111343384
(PID.TID 0000.0001)          No. starts:           1
(PID.TID 0000.0001)           No. stops:           1
(PID.TID 0000.0001)   Seconds in section "INITIALISE_VARIA    [THE_MAIN_LOOP]":
(PID.TID 0000.0001)           User time:  0.25000000000000000
(PID.TID 0000.0001)         System time:  1.00000000000000002E-002
(PID.TID 0000.0001)     Wall clock time:  0.28874397277832031
(PID.TID 0000.0001)          No. starts:           1
(PID.TID 0000.0001)           No. stops:           1
(PID.TID 0000.0001)   Seconds in section "MAIN LOOP           [THE_MAIN_LOOP]":
(PID.TID 0000.0001)           User time:   14.350000000000001
(PID.TID 0000.0001)         System time:  1.99999999999999969E-002
(PID.TID 0000.0001)     Wall clock time:   14.464747905731201
(PID.TID 0000.0001)          No. starts:           1
(PID.TID 0000.0001)           No. stops:           1
(PID.TID 0000.0001)   Seconds in section "FORWARD_STEP        [THE_MAIN_LOOP]":
(PID.TID 0000.0001)           User time:   14.350000000000010
(PID.TID 0000.0001)         System time:  1.99999999999999935E-002
(PID.TID 0000.0001)     Wall clock time:   14.464550018310547
(PID.TID 0000.0001)          No. starts:          20
(PID.TID 0000.0001)           No. stops:          20
(PID.TID 0000.0001)   Seconds in section "UPDATE_SURF_DR      [FORWARD_STEP]":
(PID.TID 0000.0001)           User time:  2.99999999999993605E-002
(PID.TID 0000.0001)         System time:   0.0000000000000000
(PID.TID 0000.0001)     Wall clock time:  1.95374488830566406E-002
(PID.TID 0000.0001)          No. starts:          40
(PID.TID 0000.0001)           No. stops:          40
(PID.TID 0000.0001)   Seconds in section "LOAD_FIELDS_DRIVER  [FORWARD_STEP]":
(PID.TID 0000.0001)           User time:  4.00000000000009237E-002
(PID.TID 0000.0001)         System time:  9.99999999999999847E-003
(PID.TID 0000.0001)     Wall clock time:  9.18619632720947266E-002
(PID.TID 0000.0001)          No. starts:          20
(PID.TID 0000.0001)           No. stops:          20
(PID.TID 0000.0001)   Seconds in section "EXTERNAL_FLDS_LOAD [LOAD_FLDS_DRIVER]":
(PID.TID 0000.0001)           User time:  4.00000000000009237E-002
(PID.TID 0000.0001)         System time:  9.99999999999999847E-003
(PID.TID 0000.0001)     Wall clock time:  9.14707183837890625E-002
(PID.TID 0000.0001)          No. starts:          20
(PID.TID 0000.0001)           No. stops:          20
(PID.TID 0000.0001)   Seconds in section "DO_ATMOSPHERIC_PHYS [FORWARD_STEP]":
(PID.TID 0000.0001)           User time:   0.0000000000000000
(PID.TID 0000.0001)         System time:   0.0000000000000000
(PID.TID 0000.0001)     Wall clock time:  1.99556350708007813E-004
(PID.TID 0000.0001)          No. starts:          20
(PID.TID 0000.0001)           No. stops:          20
(PID.TID 0000.0001)   Seconds in section "DO_OCEANIC_PHYS     [FORWARD_STEP]":
(PID.TID 0000.0001)           User time:  0.62999999999999723
(PID.TID 0000.0001)         System time:   0.0000000000000000
(PID.TID 0000.0001)     Wall clock time:  0.64145994186401367
(PID.TID 0000.0001)          No. starts:          20
(PID.TID 0000.0001)           No. stops:          20
(PID.TID 0000.0001)   Seconds in section "THERMODYNAMICS      [FORWARD_STEP]":
(PID.TID 0000.0001)           User time:   2.6299999999999990
(PID.TID 0000.0001)         System time:   0.0000000000000000
(PID.TID 0000.0001)     Wall clock time:   2.6665730476379395
(PID.TID 0000.0001)          No. starts:          20
(PID.TID 0000.0001)           No. stops:          20
(PID.TID 0000.0001)   Seconds in section "DYNAMICS            [FORWARD_STEP]":
(PID.TID 0000.0001)           User time:   4.8600000000000030
(PID.TID 0000.0001)         System time:   0.0000000000000000
(PID.TID 0000.0001)     Wall clock time:   4.8379468917846680
(PID.TID 0000.0001)          No. starts:          20
(PID.TID 0000.0001)           No. stops:          20
(PID.TID 0000.0001)   Seconds in section "UPDATE_CG2D         [FORWARD_STEP]":
(PID.TID 0000.0001)           User time:  0.10000000000000320
(PID.TID 0000.0001)         System time:   0.0000000000000000
(PID.TID 0000.0001)     Wall clock time:  0.12616348266601563
(PID.TID 0000.0001)          No. starts:          20
(PID.TID 0000.0001)           No. stops:          20
(PID.TID 0000.0001)   Seconds in section "SOLVE_FOR_PRESSURE  [FORWARD_STEP]":
(PID.TID 0000.0001)           User time:   2.7400000000000020
(PID.TID 0000.0001)         System time:   0.0000000000000000
(PID.TID 0000.0001)     Wall clock time:   2.7437813282012939
(PID.TID 0000.0001)          No. starts:          20
(PID.TID 0000.0001)           No. stops:          20
(PID.TID 0000.0001)   Seconds in section "MOM_CORRECTION_STEP [FORWARD_STEP]":
(PID.TID 0000.0001)           User time:  0.47999999999999510
(PID.TID 0000.0001)         System time:   0.0000000000000000
(PID.TID 0000.0001)     Wall clock time:  0.46216034889221191
(PID.TID 0000.0001)          No. starts:          20
(PID.TID 0000.0001)           No. stops:          20
(PID.TID 0000.0001)   Seconds in section "UPDATE_ETAH         [FORWARD_STEP]":
(PID.TID 0000.0001)           User time:   0.0000000000000000
(PID.TID 0000.0001)         System time:   0.0000000000000000
(PID.TID 0000.0001)     Wall clock time:  3.32999229431152344E-003
(PID.TID 0000.0001)          No. starts:          20
(PID.TID 0000.0001)           No. stops:          20
(PID.TID 0000.0001)   Seconds in section "CALC_SURF_DR      [FORWARD_STEP]":
(PID.TID 0000.0001)           User time:  1.99999999999995737E-002
(PID.TID 0000.0001)         System time:   0.0000000000000000
(PID.TID 0000.0001)     Wall clock time:  2.29184627532958984E-002
(PID.TID 0000.0001)          No. starts:          20
(PID.TID 0000.0001)           No. stops:          20
(PID.TID 0000.0001)   Seconds in section "TRC_CORRECTION_STEP [FORWARD_STEP]":
(PID.TID 0000.0001)           User time:  3.99999999999991473E-002
(PID.TID 0000.0001)         System time:   0.0000000000000000
(PID.TID 0000.0001)     Wall clock time:  5.89966773986816406E-002
(PID.TID 0000.0001)          No. starts:          20
(PID.TID 0000.0001)           No. stops:          20
(PID.TID 0000.0001)   Seconds in section "BLOCKING_EXCHANGES  [FORWARD_STEP]":
(PID.TID 0000.0001)           User time:  7.00000000000002842E-002
(PID.TID 0000.0001)         System time:   0.0000000000000000
(PID.TID 0000.0001)     Wall clock time:  5.95645904541015625E-002
(PID.TID 0000.0001)          No. starts:          20
(PID.TID 0000.0001)           No. stops:          20
(PID.TID 0000.0001)   Seconds in section "DO_STATEVARS_TAVE   [FORWARD_STEP]":
(PID.TID 0000.0001)           User time:   1.0800000000000001
(PID.TID 0000.0001)         System time:   0.0000000000000000
(PID.TID 0000.0001)     Wall clock time:   1.0770425796508789
(PID.TID 0000.0001)          No. starts:          20
(PID.TID 0000.0001)           No. stops:          20
(PID.TID 0000.0001)   Seconds in section "MONITOR             [FORWARD_STEP]":
(PID.TID 0000.0001)           User time:   1.5900000000000016
(PID.TID 0000.0001)         System time:   0.0000000000000000
(PID.TID 0000.0001)     Wall clock time:   1.5907547473907471
(PID.TID 0000.0001)          No. starts:          20
(PID.TID 0000.0001)           No. stops:          20
(PID.TID 0000.0001)   Seconds in section "DO_THE_MODEL_IO     [FORWARD_STEP]":
(PID.TID 0000.0001)           User time:  1.99999999999995737E-002
(PID.TID 0000.0001)         System time:  9.99999999999999847E-003
(PID.TID 0000.0001)     Wall clock time:  2.54318714141845703E-002
(PID.TID 0000.0001)          No. starts:          20
(PID.TID 0000.0001)           No. stops:          20
(PID.TID 0000.0001)   Seconds in section "DO_WRITE_PICKUP     [FORWARD_STEP]":
(PID.TID 0000.0001)           User time:  2.00000000000013500E-002
(PID.TID 0000.0001)         System time:   0.0000000000000000
(PID.TID 0000.0001)     Wall clock time:  3.31442356109619141E-002
(PID.TID 0000.0001)          No. starts:          20
(PID.TID 0000.0001)           No. stops:          20
(PID.TID 0000.0001) // ======================================================
(PID.TID 0000.0001) // Tile <-> Tile communication statistics
(PID.TID 0000.0001) // ======================================================
(PID.TID 0000.0001) // o Tile number: 000001
(PID.TID 0000.0001) //         No. X exchanges =              0
(PID.TID 0000.0001) //            Max. X spins =              0
(PID.TID 0000.0001) //            Min. X spins =     1000000000
(PID.TID 0000.0001) //          Total. X spins =              0
(PID.TID 0000.0001) //            Avg. X spins =       0.00E+00
(PID.TID 0000.0001) //         No. Y exchanges =              0
(PID.TID 0000.0001) //            Max. Y spins =              0
(PID.TID 0000.0001) //            Min. Y spins =     1000000000
(PID.TID 0000.0001) //          Total. Y spins =              0
(PID.TID 0000.0001) //            Avg. Y spins =       0.00E+00
(PID.TID 0000.0001) // o Tile number: 000002
(PID.TID 0000.0001) //         No. X exchanges =              0
(PID.TID 0000.0001) //            Max. X spins =              0
(PID.TID 0000.0001) //            Min. X spins =     1000000000
(PID.TID 0000.0001) //          Total. X spins =              0
(PID.TID 0000.0001) //            Avg. X spins =       0.00E+00
(PID.TID 0000.0001) //         No. Y exchanges =              0
(PID.TID 0000.0001) //            Max. Y spins =              0
(PID.TID 0000.0001) //            Min. Y spins =     1000000000
(PID.TID 0000.0001) //          Total. Y spins =              0
(PID.TID 0000.0001) //            Avg. Y spins =       0.00E+00
(PID.TID 0000.0001) // o Thread number: 000001
(PID.TID 0000.0001) //            No. barriers =          15540
(PID.TID 0000.0001) //      Max. barrier spins =              1
(PID.TID 0000.0001) //      Min. barrier spins =              1
(PID.TID 0000.0001) //     Total barrier spins =          15540
(PID.TID 0000.0001) //      Avg. barrier spins =       1.00E+00
PROGRAM MAIN: Execution ended Normally
