(PID.TID 0000.0001) 
(PID.TID 0000.0001) // ======================================================
(PID.TID 0000.0001) //                      MITgcm UV
(PID.TID 0000.0001) //                      =========
(PID.TID 0000.0001) // ======================================================
(PID.TID 0000.0001) // execution environment starting up...
(PID.TID 0000.0001) 
(PID.TID 0000.0001) // MITgcmUV version:  checkpoint57s_post
(PID.TID 0000.0001) // Build user:        jmc
(PID.TID 0000.0001) // Build host:        faulks
(PID.TID 0000.0001) // Build date:        Wed Sep 28 21:05:10 EDT 2005
(PID.TID 0000.0001) 
(PID.TID 0000.0001) // =======================================================
(PID.TID 0000.0001) // Execution Environment parameter file "eedata"
(PID.TID 0000.0001) // =======================================================
(PID.TID 0000.0001) ># Example "eedata" file
(PID.TID 0000.0001) ># Lines beginning "#" are comments
(PID.TID 0000.0001) ># nTx - No. threads per process in X
(PID.TID 0000.0001) ># nTy - No. threads per process in Y
(PID.TID 0000.0001) > &EEPARMS
(PID.TID 0000.0001) > nTx=1,nTy=1
(PID.TID 0000.0001) > &
(PID.TID 0000.0001) ># Note: Some systems use & as the
(PID.TID 0000.0001) ># namelist terminator. Other systems
(PID.TID 0000.0001) ># use a / character (as shown here).
(PID.TID 0000.0001) ># BUT some compilers do not understand "/"
(PID.TID 0000.0001) 
(PID.TID 0000.0001) // =======================================================
(PID.TID 0000.0001) // Computational Grid Specification ( see files "SIZE.h" )
(PID.TID 0000.0001) //                                  ( and "eedata"       )
(PID.TID 0000.0001) // =======================================================
(PID.TID 0000.0001)      nPx =    1 ; /* No. processes in X */
(PID.TID 0000.0001)      nPy =    1 ; /* No. processes in Y */
(PID.TID 0000.0001)      nSx =    1 ; /* No. tiles in X per process */
(PID.TID 0000.0001)      nSy =    2 ; /* No. tiles in Y per process */
(PID.TID 0000.0001)      sNx =   90 ; /* Tile size in X */
(PID.TID 0000.0001)      sNy =   20 ; /* Tile size in Y */
(PID.TID 0000.0001)      OLx =    2 ; /* Tile overlap distance in X */
(PID.TID 0000.0001)      OLy =    2 ; /* Tile overlap distance in Y */
(PID.TID 0000.0001)      nTx =    1 ; /* No. threads in X per process */
(PID.TID 0000.0001)      nTy =    1 ; /* No. threads in Y per process */
(PID.TID 0000.0001)       Nr =   15 ; /* No. levels in the vertical   */
(PID.TID 0000.0001)       nX =   90 ; /* Total domain size in X ( = nPx*nSx*sNx ) */
(PID.TID 0000.0001)       nY =   40 ; /* Total domain size in Y ( = nPy*nSy*sNy ) */
(PID.TID 0000.0001)   nTiles =    2 ; /* Total no. tiles per process ( = nSx*nSy ) */
(PID.TID 0000.0001)   nProcs =    1 ; /* Total no. processes ( = nPx*nPy ) */
(PID.TID 0000.0001) nThreads =    1 ; /* Total no. threads per process ( = nTx*nTy ) */
(PID.TID 0000.0001) usingMPI =    F ; /* Flag used to control whether MPI is in use */
(PID.TID 0000.0001)                   /*  note: To execute a program with MPI calls */
(PID.TID 0000.0001)                   /*  it must be launched appropriately e.g     */
(PID.TID 0000.0001)                   /*  "mpirun -np 64 ......"                    */
(PID.TID 0000.0001) useCoupler=   F ; /* Flag used to control communications with */
(PID.TID 0000.0001)                   /*  other model components, through a coupler */
(PID.TID 0000.0001) 
(PID.TID 0000.0001) // ======================================================
(PID.TID 0000.0001) // Mapping of tiles to threads
(PID.TID 0000.0001) // ======================================================
(PID.TID 0000.0001) // -o- Thread   1, tiles (   1:   1,   1:   2)
(PID.TID 0000.0001) 
(PID.TID 0000.0001) // ======================================================
(PID.TID 0000.0001) // Tile <-> Tile connectvity table
(PID.TID 0000.0001) // ======================================================
(PID.TID 0000.0001) // Tile number: 000001 (process no. = 000001)
(PID.TID 0000.0001) //        WEST: Tile = 000001, Process = 000001, Comm = put
(PID.TID 0000.0001) //                bi = 000001, bj = 000001
(PID.TID 0000.0001) //        EAST: Tile = 000001, Process = 000001, Comm = put
(PID.TID 0000.0001) //                bi = 000001, bj = 000001
(PID.TID 0000.0001) //       SOUTH: Tile = 000002, Process = 000001, Comm = put
(PID.TID 0000.0001) //                bi = 000001, bj = 000002
(PID.TID 0000.0001) //       NORTH: Tile = 000002, Process = 000001, Comm = put
(PID.TID 0000.0001) //                bi = 000001, bj = 000002
(PID.TID 0000.0001) // Tile number: 000002 (process no. = 000001)
(PID.TID 0000.0001) //        WEST: Tile = 000002, Process = 000001, Comm = put
(PID.TID 0000.0001) //                bi = 000001, bj = 000002
(PID.TID 0000.0001) //        EAST: Tile = 000002, Process = 000001, Comm = put
(PID.TID 0000.0001) //                bi = 000001, bj = 000002
(PID.TID 0000.0001) //       SOUTH: Tile = 000001, Process = 000001, Comm = put
(PID.TID 0000.0001) //                bi = 000001, bj = 000001
(PID.TID 0000.0001) //       NORTH: Tile = 000001, Process = 000001, Comm = put
(PID.TID 0000.0001) //                bi = 000001, bj = 000001
(PID.TID 0000.0001) 
(PID.TID 0000.0001) // =======================================================
(PID.TID 0000.0001) // Model parameter file "data"
(PID.TID 0000.0001) // =======================================================
(PID.TID 0000.0001) ># ====================
(PID.TID 0000.0001) ># | Model parameters |
(PID.TID 0000.0001) ># ====================
(PID.TID 0000.0001) >#
(PID.TID 0000.0001) ># Continuous equation parameters
(PID.TID 0000.0001) > &PARM01
(PID.TID 0000.0001) > tRef=15*20.,
(PID.TID 0000.0001) > sRef=15*35.,
(PID.TID 0000.0001) > viscAh =3.E5,
(PID.TID 0000.0001) > no_slip_sides=.TRUE.,
(PID.TID 0000.0001) > viscAr =1.721611620915750e5,
(PID.TID 0000.0001) >#viscAz =1.67E-3,
(PID.TID 0000.0001) > no_slip_bottom=.FALSE.,
(PID.TID 0000.0001) > diffKhT=1.E3,
(PID.TID 0000.0001) > diffKrT=5.154525811125000e3,
(PID.TID 0000.0001) >#diffKzT=0.5E-4,
(PID.TID 0000.0001) > diffKhS=1.E3,
(PID.TID 0000.0001) > diffKrS=5.154525811125000e3,
(PID.TID 0000.0001) >#diffKzS=0.5E-4,
(PID.TID 0000.0001) > implicitDiffusion=.TRUE.,
(PID.TID 0000.0001) > ivdc_kappa=1.030905162225000e9,
(PID.TID 0000.0001) >#ivdc_kappa=10.0,
(PID.TID 0000.0001) > gravity=9.81,
(PID.TID 0000.0001) > rhonil=1035.,
(PID.TID 0000.0001) > rhoConstFresh=999.8,
(PID.TID 0000.0001) > buoyancyRelation='OCEANICP',
(PID.TID 0000.0001) > integr_GeoPot=1,
(PID.TID 0000.0001) > eosType='JMD95P',
(PID.TID 0000.0001) > useNHMTerms=.TRUE.,
(PID.TID 0000.0001) > rigidLid=.FALSE.,
(PID.TID 0000.0001) > implicitFreeSurface=.TRUE.,
(PID.TID 0000.0001) > exactConserv=.TRUE.,
(PID.TID 0000.0001) > nonlinFreeSurf=4,
(PID.TID 0000.0001) > hFacInf=0.2,
(PID.TID 0000.0001) > hFacSup=2.0,
(PID.TID 0000.0001) >#useRealFreshWaterFlux=.TRUE.,
(PID.TID 0000.0001) > readBinaryPrec=64,
(PID.TID 0000.0001) > writeBinaryPrec=64,
(PID.TID 0000.0001) > cosPower=0.5,
(PID.TID 0000.0001) > &
(PID.TID 0000.0001) >
(PID.TID 0000.0001) ># Elliptic solver parameters
(PID.TID 0000.0001) > &PARM02
(PID.TID 0000.0001) > cg2dMaxIters=200,
(PID.TID 0000.0001) > cg2dTargetResidual=1.E-9,
(PID.TID 0000.0001) > &
(PID.TID 0000.0001) >
(PID.TID 0000.0001) ># Time stepping parameters
(PID.TID 0000.0001) > &PARM03
(PID.TID 0000.0001) > startTime =           0.,
(PID.TID 0000.0001) > endTime   =     3456000.,
(PID.TID 0000.0001) ># after 100 years of intergration, one gets a reasonable flow field
(PID.TID 0000.0001) >#endTime   = 3110400000.,
(PID.TID 0000.0001) > deltaTmom      =   1200.0,
(PID.TID 0000.0001) > deltaTtracer   = 172800.0,
(PID.TID 0000.0001) > deltaTfreesurf = 172800.0,
(PID.TID 0000.0001) > deltaTClock    = 172800.0,
(PID.TID 0000.0001) > pChkptFreq  = 3110400000.,
(PID.TID 0000.0001) > dumpFreq    = 3110400000.,
(PID.TID 0000.0001) > taveFreq    = 3110400000.,
(PID.TID 0000.0001) > monitorFreq =   1.,
(PID.TID 0000.0001) > periodicExternalForcing=.TRUE.,
(PID.TID 0000.0001) > externForcingPeriod=2592000.,
(PID.TID 0000.0001) > externForcingCycle=31104000.,
(PID.TID 0000.0001) > tauThetaClimRelax=5184000.0,
(PID.TID 0000.0001) > abEps=0.1,
(PID.TID 0000.0001) > &
(PID.TID 0000.0001) >
(PID.TID 0000.0001) ># Gridding parameters
(PID.TID 0000.0001) > &PARM04
(PID.TID 0000.0001) > usingCartesianGrid=.FALSE.,
(PID.TID 0000.0001) > usingSphericalPolarGrid=.TRUE.,
(PID.TID 0000.0001) > dXspacing=4.,
(PID.TID 0000.0001) > dYspacing=4.,
(PID.TID 0000.0001) > Ro_SeaLevel=53023122.566084,
(PID.TID 0000.0001) > delR=7103300.720021, 6570548.440790, 6041670.010249,
(PID.TID 0000.0001) >      5516436.666057, 4994602.034410, 4475903.435290,
(PID.TID 0000.0001) >      3960063.245801, 3446790.312651, 2935781.405664,
(PID.TID 0000.0001) >      2426722.705046, 1919291.315988, 1413156.804970,
(PID.TID 0000.0001) >      1008846.750166,  705919.025481,  504089.693499,
(PID.TID 0000.0001) > phiMin=-80.,
(PID.TID 0000.0001) > &
(PID.TID 0000.0001) >
(PID.TID 0000.0001) ># Input datasets
(PID.TID 0000.0001) > &PARM05
(PID.TID 0000.0001) > topoFile       ='topog.bin',
(PID.TID 0000.0001) > pLoadFile      ='deltageopotjmd95.bin',
(PID.TID 0000.0001) > hydrogThetaFile='lev_t.bin',
(PID.TID 0000.0001) > hydrogSaltFile ='lev_s.bin',
(PID.TID 0000.0001) > zonalWindFile  ='trenberth_taux.bin',
(PID.TID 0000.0001) > meridWindFile  ='trenberth_tauy.bin',
(PID.TID 0000.0001) > thetaClimFile  ='lev_sst.bin',
(PID.TID 0000.0001) >#saltClimFile   ='lev_sss.bin',
(PID.TID 0000.0001) > surfQFile      ='shi_qnet.bin',
(PID.TID 0000.0001) > EmPmRFile      ='shi_empmr.bin',
(PID.TID 0000.0001) > &
(PID.TID 0000.0001) 
(PID.TID 0000.0001) S/R INI_PARMS ; starts to read PARM01
(PID.TID 0000.0001) S/R INI_PARMS ; read PARM01 : OK
(PID.TID 0000.0001) S/R INI_PARMS ; starts to read PARM02
(PID.TID 0000.0001) S/R INI_PARMS ; read PARM02 : OK
(PID.TID 0000.0001) S/R INI_PARMS ; starts to read PARM03
(PID.TID 0000.0001) S/R INI_PARMS ; read PARM03 : OK
(PID.TID 0000.0001) S/R INI_PARMS ; starts to read PARM04
(PID.TID 0000.0001) S/R INI_PARMS ; read PARM04 : OK
(PID.TID 0000.0001) S/R INI_PARMS ; starts to read PARM05
(PID.TID 0000.0001) S/R INI_PARMS ; read PARM05 : OK
(PID.TID 0000.0001)  PACKAGES_BOOT: opening data.pkg
(PID.TID 0000.0001)  OPEN_COPY_DATA_FILE: opening file data.pkg
(PID.TID 0000.0001) // =======================================================
(PID.TID 0000.0001) // Parameter file "data.pkg"
(PID.TID 0000.0001) // =======================================================
(PID.TID 0000.0001) ># Packages
(PID.TID 0000.0001) > &PACKAGES
(PID.TID 0000.0001) > &
(PID.TID 0000.0001) 
(PID.TID 0000.0001)  PACKAGES_BOOT: finished reading data.pkg
(PID.TID 0000.0001) %MON XC_max                       =   3.5800000000000E+02
(PID.TID 0000.0001) %MON XC_min                       =   2.0000000000000E+00
(PID.TID 0000.0001) %MON XC_mean                      =   1.8000000000000E+02
(PID.TID 0000.0001) %MON XC_sd                        =   1.0391663325314E+02
(PID.TID 0000.0001) %MON XG_max                       =   3.5600000000000E+02
(PID.TID 0000.0001) %MON XG_min                       =   4.0000000000000E+00
(PID.TID 0000.0001) %MON XG_mean                      =   1.8000000000000E+02
(PID.TID 0000.0001) %MON XG_sd                        =   1.0276186062932E+02
(PID.TID 0000.0001) %MON DXC_max                      =   4.4443898815675E+05
(PID.TID 0000.0001) %MON DXC_min                      =   9.2460385861875E+04
(PID.TID 0000.0001) %MON DXC_mean                     =   3.1372497618153E+05
(PID.TID 0000.0001) %MON DXC_sd                       =   1.1216447457560E+05
(PID.TID 0000.0001) %MON DXF_max                      =   4.4443898815675E+05
(PID.TID 0000.0001) %MON DXF_min                      =   9.2460385861875E+04
(PID.TID 0000.0001) %MON DXF_mean                     =   3.1372497618153E+05
(PID.TID 0000.0001) %MON DXF_sd                       =   1.1216447457560E+05
(PID.TID 0000.0001) %MON DXG_max                      =   4.4470989340816E+05
(PID.TID 0000.0001) %MON DXG_min                      =   7.7223062580781E+04
(PID.TID 0000.0001) %MON DXG_mean                     =   3.1353386340261E+05
(PID.TID 0000.0001) %MON DXG_sd                       =   1.1256651772502E+05
(PID.TID 0000.0001) %MON DXV_max                      =   4.4470989340816E+05
(PID.TID 0000.0001) %MON DXV_min                      =   7.7223062580781E+04
(PID.TID 0000.0001) %MON DXV_mean                     =   3.1353386340261E+05
(PID.TID 0000.0001) %MON DXV_sd                       =   1.1256651772502E+05
(PID.TID 0000.0001) %MON YC_max                       =   7.8000000000000E+01
(PID.TID 0000.0001) %MON YC_min                       =  -7.8000000000000E+01
(PID.TID 0000.0001) %MON YC_mean                      =   0.0000000000000E+00
(PID.TID 0000.0001) %MON YC_sd                        =   4.6173585522461E+01
(PID.TID 0000.0001) %MON YG_max                       =   7.6000000000000E+01
(PID.TID 0000.0001) %MON YG_min                       =  -8.0000000000000E+01
(PID.TID 0000.0001) %MON YG_mean                      =  -2.0512820512821E+00
(PID.TID 0000.0001) %MON YG_sd                        =   4.6760682979564E+01
(PID.TID 0000.0001) %MON DYC_max                      =   4.4470989340816E+05
(PID.TID 0000.0001) %MON DYC_min                      =   4.4470989340816E+05
(PID.TID 0000.0001) %MON DYC_mean                     =   4.4470989340817E+05
(PID.TID 0000.0001) %MON DYC_sd                       =   1.4668330550194E-08
(PID.TID 0000.0001) %MON DYF_max                      =   4.4470989340816E+05
(PID.TID 0000.0001) %MON DYF_min                      =   4.4470989340816E+05
(PID.TID 0000.0001) %MON DYF_mean                     =   4.4470989340817E+05
(PID.TID 0000.0001) %MON DYF_sd                       =   1.4668330550194E-08
(PID.TID 0000.0001) %MON DYG_max                      =   4.4470989340816E+05
(PID.TID 0000.0001) %MON DYG_min                      =   4.4470989340816E+05
(PID.TID 0000.0001) %MON DYG_mean                     =   4.4470989340817E+05
(PID.TID 0000.0001) %MON DYG_sd                       =   1.4668330550194E-08
(PID.TID 0000.0001) %MON DYU_max                      =   4.4470989340816E+05
(PID.TID 0000.0001) %MON DYU_min                      =   4.4470989340816E+05
(PID.TID 0000.0001) %MON DYU_mean                     =   4.4470989340817E+05
(PID.TID 0000.0001) %MON DYU_sd                       =   1.4668330550194E-08
(PID.TID 0000.0001) %MON RA_max                       =   1.9760627980089E+11
(PID.TID 0000.0001) %MON RA_min                       =   4.1109698667290E+10
(PID.TID 0000.0001) %MON RA_mean                      =   1.3948826965196E+11
(PID.TID 0000.0001) %MON RA_sd                        =   4.9870522472901E+10
(PID.TID 0000.0001) %MON RAW_max                      =   1.9760627980089E+11
(PID.TID 0000.0001) %MON RAW_min                      =   4.1109698667290E+10
(PID.TID 0000.0001) %MON RAW_mean                     =   1.3948826965196E+11
(PID.TID 0000.0001) %MON RAW_sd                       =   4.9870522472901E+10
(PID.TID 0000.0001) %MON RAS_max                      =   1.9772672958215E+11
(PID.TID 0000.0001) %MON RAS_min                      =   3.4334886267983E+10
(PID.TID 0000.0001) %MON RAS_mean                     =   1.3940329716694E+11
(PID.TID 0000.0001) %MON RAS_sd                       =   5.0049278732353E+10
(PID.TID 0000.0001) %MON RAZ_max                      =   1.9772672958215E+11
(PID.TID 0000.0001) %MON RAZ_min                      =   3.4334886267983E+10
(PID.TID 0000.0001) %MON RAZ_mean                     =   1.3940329716694E+11
(PID.TID 0000.0001) %MON RAZ_sd                       =   5.0049278732353E+10
(PID.TID 0000.0001) %MON AngleCS_max                  =   1.0000000000000E+00
(PID.TID 0000.0001) %MON AngleCS_min                  =   1.0000000000000E+00
(PID.TID 0000.0001) %MON AngleCS_mean                 =   1.0000000000000E+00
(PID.TID 0000.0001) %MON AngleCS_sd                   =   0.0000000000000E+00
(PID.TID 0000.0001) %MON AngleSN_max                  =   0.0000000000000E+00
(PID.TID 0000.0001) %MON AngleSN_min                  =   0.0000000000000E+00
(PID.TID 0000.0001) %MON AngleSN_mean                 =   0.0000000000000E+00
(PID.TID 0000.0001) %MON AngleSN_sd                   =   0.0000000000000E+00
(PID.TID 0000.0001)  MDSREADFIELD: opening global file: topog.bin
(PID.TID 0000.0001) // =======================================================
(PID.TID 0000.0001) // Field Model R_low (ini_masks_etc) at iteration          1
(PID.TID 0000.0001) // CMIN =          1.008622348308563E-06
(PID.TID 0000.0001) // CMAX =          1.008622348308563E-06
(PID.TID 0000.0001) // CINT =          0.000000000000000E+00
(PID.TID 0000.0001) // SYMBOLS (CMIN->CMAX): -abcdefghijklmnopqrstuvwxyz+
(PID.TID 0000.0001) //                  0.0: .
(PID.TID 0000.0001) // RANGE I (Lo:Hi:Step):(  -1:  92:   1)
(PID.TID 0000.0001) // RANGE J (Lo:Hi:Step):(  42:  -1:  -1)
(PID.TID 0000.0001) // RANGE K (Lo:Hi:Step):(   1:   1:   1)
(PID.TID 0000.0001) // =======================================================
(PID.TID 0000.0001) // =======================================================
(PID.TID 0000.0001) // END OF FIELD                                          =
(PID.TID 0000.0001) // =======================================================
(PID.TID 0000.0001) 
(PID.TID 0000.0001) // =======================================================
(PID.TID 0000.0001) // Field Model Ro_surf (ini_masks_etc) at iteration          1
(PID.TID 0000.0001) // CMIN =          1.008622348308563E-06
(PID.TID 0000.0001) // CMAX =          5.302312256608400E+07
(PID.TID 0000.0001) // CINT =          1.963819354299370E+06
(PID.TID 0000.0001) // SYMBOLS (CMIN->CMAX): -abcdefghijklmnopqrstuvwxyz+
(PID.TID 0000.0001) //                  0.0: .
(PID.TID 0000.0001) // RANGE I (Lo:Hi:Step):(  -1:  92:   1)
(PID.TID 0000.0001) // RANGE J (Lo:Hi:Step):(  42:  -1:  -1)
(PID.TID 0000.0001) // RANGE K (Lo:Hi:Step):(   1:   1:   1)
(PID.TID 0000.0001) // =======================================================
(PID.TID 0000.0001) K =   1
(PID.TID 0000.0001) //                I=8       I=18      I=28      I=38      I=48      I=58      I=68      I=78      I=88
(PID.TID 0000.0001) // |--J--|*01234567|901234567|901234567|901234567|901234567|901234567|901234567|901234567|901234567|9012
(PID.TID 0000.0001) //     42 --------------------------------------------bbcdnttwwwttttqnnlfddc--abcc-----ccbcltttttba-----
(PID.TID 0000.0001) //     41 ----------------------------------------------------------------------------------------------
(PID.TID 0000.0001) //     40 innllaa-aaaaaaaaaaaaa------------------------------------------------------------------aaainnl
(PID.TID 0000.0001) //     39 gnnllibbaaaaaaaa---aa-----------------------------------------------------bdda--------abffgnnl
(PID.TID 0000.0001) //     38 nllllibbaaaaaaa-----------------------------------------------------------bddca------bccfgnlll
(PID.TID 0000.0001) //     37 nnnga------------------------------------------------------------------aa---bca---bggc--agnnng
(PID.TID 0000.0001) //     36 fgga-----------------------------------------nnaa--------------------aaaaaaabnnn-bllfggffcfgga
(PID.TID 0000.0001) //     35 aaaa---------------------------------aaaa--iinnqqa---atttn-----------aaa----annqqqnglllgddaaaa
(PID.TID 0000.0001) //     34 -------------------------------------affc-tticcfab-wwwttttn------------------anqttqqqtttna----
(PID.TID 0000.0001) //     33 a-------------------------------------ffa+++t+++++++++wwwtqna-----------------aifwwtnttttda---
(PID.TID 0000.0001) //     32 a-------------------------------------ag++++t++++++++++wwttnn----------------aaatwttqltttna---
(PID.TID 0000.0001) //     31 --------------------------------------++++++w++++++++++wwwtqn--------------iw++twwwtiltwwn----
(PID.TID 0000.0001) //     30 -------------------------------------t++++w++w+++++++++++++ww------------at++++twwwlgqtwwq----
(PID.TID 0000.0001) //     29 -----------------------------------gf++++t+++tqt+++++++++++wwt-----------w++w+++wtnqq++wtq----
(PID.TID 0000.0001) //     28 ---------------------------------actn+++++++++++++++++++wwwwwtq---------iw++++++wntww++wqa----
(PID.TID 0000.0001) //     27 ----------------cc--------------aftttlt++++++++w+nnw+++wwwwwwttt---aaac-iw++++++qt+++++t------
(PID.TID 0000.0001) //     26 ----------------cnn-----------afw+++wl+++++++++++qwtn++++++wwtttqg-aa-ii-c++++++tw++++wq------
(PID.TID 0000.0001) //     25 ----------------qttq---lla---atfw+++wl+++ww++qqtnt+++++++++wwtttqnn---iifnac+++wqw++wwqq------
(PID.TID 0000.0001) //     24 --------------cntwwtg-qqqa---ftt-++twn+++++++++++++++++++wwwwwttqnqqqf-afnnddwwwtw++++wt------
(PID.TID 0000.0001) //     23 --------------dttwwtl-ttqd---fff--tqtq++++ttw+++++w++++++wwwwwttqqqqqql----bbqwwwt++++ww------
(PID.TID 0000.0001) //     22 gii-----------wwwqttgnttqq---bb-dlqwwlltwwwwt++++++wt+w++wwwwwwtttqqqqii------dwwwttwwtwwigii-
(PID.TID 0000.0001) //     21 ++wqi--------nwwwwqtiwwwqqb-----dltwwqtttnwwt++++++wqwwwwwwwwwttttqnnill--------twwtqttwww++wq
(PID.TID 0000.0001) //     20 ++wwi-------nwwwwwtqwwwwqww------b-fqqqgiltttt+++++++wwwwwwwwwwtttqttqqn---------ntt+++ttw++ww
(PID.TID 0000.0001) //     19 ww++t-------qwwlittl+++qwwwwd---aba-----iannww++++t++++wwwwwwwwttqtttttt-----------w+++wqtww++
(PID.TID 0000.0001) //     22 gii-----------wwwqttgnttqq---bb-dlqwwlltwwwwt++++++wt+w++wwwwwwtttqqqqii------dwwwttwwtwwigii-
(PID.TID 0000.0001) //     21 ++wqi--------nwwwwqtiwwwqqb-----dltwwqtttnwwt++++++wqwwwwwwwwwttttqnnill--------twwtqttwww++wq
(PID.TID 0000.0001) //     20 ++wwi-------nwwwwwtqwwwwqww------b-fqqqgiltttt+++++++wwwwwwwwwwtttqttqqn---------ntt+++ttw++ww
(PID.TID 0000.0001) //     19 ww++t-------qwwlittl+++qwwwwd---aba-----iannww++++t++++wwwwwwwwttqtttttt-----------w+++wqtww++
(PID.TID 0000.0001) //     18 w+++w-------qtnttfqq+++qwww++w+qfaa---iiblntwwwwtwtq+++wwtwwwwwtqtttttwwa----------w+++wqtw+++
(PID.TID 0000.0001) //     17 w+++w-------q-twwdqt+++l+++++++qf-----iilnninnnltwww++wwwttttttnqttqtwwwq---------tw+++wqtw+++
(PID.TID 0000.0001) //     16 w+++w------gn-wwtnntw++i++++++nf-------flnnfnnndf+++wwqflnttttqntttttwwwqt--------it+++wqtw+++
(PID.TID 0000.0001) //     15 w++wlb----aqq-wwwttnwwwnw+++++f---------lggdllnf++++wwwwwtqtttqqtttttwwqttt------atw+++wqtw++w
(PID.TID 0000.0001) //     14 w++nwn----dwwi+++tqqqtwnw++w+tb---------ttgglttg++++++wwtwttqqqnqttqqqqtttt-----aqtw+++wntw++n
(PID.TID 0000.0001) //     13 wwn++t----nwwl+++qwwtqttliiw++n---------wwggittg++++++++wwwtttqqnqqttqttttl----aqttlwwwtntwwn+
(PID.TID 0000.0001) //     12 tt+++wdaqttwwnwntwwwtntqttww++wt+++a----wwigiilw+++++++++wwqtttqqqqqtttttt-----qwwwwttttnttt++
(PID.TID 0000.0001) //     11 tw+++w++qtwwwnnt++wwtlttttwww++++++++--wwwwng-nw+w+++++++++wwwtqntttqqtttt----n+++++wwtqnqtw++
(PID.TID 0000.0001) //     10 tw++ww+w++wtiqqt++wwtqnnnqttwwww+++++w-wwwwtd-nbiw+++++++++wwwtqnttwwttqtq--ad++++++wwttnqtw++
(PID.TID 0000.0001) //      9 ttwwwww+++llglntwtwtqqqttnnnttwwwwwwwwnwwwwt-fbt+++++++++++wwwtnqttwwwttqf-aad++++++wwwtqnttww
(PID.TID 0000.0001) //      8 tttqqqw++twwttwwwwfblqttttttnqqqttqqqtwtwwticfw++++++wwwwwwwttqnttwwwwwwta-aacttn++wtwwwtntttq
(PID.TID 0000.0001) //      7 ninnwwqqt++wnw++wwtgcqtwwwttwwwwwwwttnttwwntw++++++wwwwtttqtqnnttwww+++wwt-aaaintgfqtqwwwtninn
(PID.TID 0000.0001) //      6 w++++++++++++++++wwwnggwwwwwwwwwwwwwwtqqqqttw++++wwwtqnnqnwtww+++w+w+++wwwtqqqqtilnniwtqtww+++
(PID.TID 0000.0001) //      5 +++++++++++++++++wwwttttwwwwwwwwwwwwwtqqqlnlwwwwtttnnnqtwwww++++++++w+wwwwtqqqgitwwwwww+++++++
(PID.TID 0000.0001) //      4 ++tw++++++wwwqttttqqqttqqlbdnnllqqlnqqqqqnnnlnqlnnntttwwwwww+++++++wwwwwttnb--cqtwwwwww+++++tw
(PID.TID 0000.0001) //      3 ttttilqqqdcc----------------------------cclgnqqqqttwwwwwwwwwtttttwwwwttqqbb--ciqtwwwwwwwwttttt
(PID.TID 0000.0001) //      2 --------------------------------------------bbcdnttwwwttttqnnlfddc--abcc-----ccbcltttttba-----
(PID.TID 0000.0001) //      1 ----------------------------------------------------------------------------------------------
(PID.TID 0000.0001) //      0 innllaa-aaaaaaaaaaaaa------------------------------------------------------------------aaainnl
(PID.TID 0000.0001) //     -1 gnnllibbaaaaaaaa---aa-----------------------------------------------------bdda--------abffgnnl
(PID.TID 0000.0001) // =======================================================
(PID.TID 0000.0001) // END OF FIELD                                          =
(PID.TID 0000.0001) // =======================================================
(PID.TID 0000.0001) 
(PID.TID 0000.0001) // =======================================================
(PID.TID 0000.0001) // Field hFacC at iteration          1
(PID.TID 0000.0001) // CMIN =          1.000000000000000E+00
(PID.TID 0000.0001) // CMAX =          1.000000000000000E+00
(PID.TID 0000.0001) // CINT =          0.000000000000000E+00
(PID.TID 0000.0001) // SYMBOLS (CMIN->CMAX): -abcdefghijklmnopqrstuvwxyz+
(PID.TID 0000.0001) //                  0.0: .
(PID.TID 0000.0001) // RANGE I (Lo:Hi:Step):(  -1:  92:   1)
(PID.TID 0000.0001) // RANGE J (Lo:Hi:Step):(  42:  -1:  -1)
(PID.TID 0000.0001) // RANGE K (Lo:Hi:Step):(   1:   1:   1)
(PID.TID 0000.0001) // =======================================================
(PID.TID 0000.0001) // =======================================================
(PID.TID 0000.0001) // END OF FIELD                                          =
(PID.TID 0000.0001) // =======================================================
(PID.TID 0000.0001) 
(PID.TID 0000.0001) // =======================================================
(PID.TID 0000.0001) // Field hFacW at iteration          1
(PID.TID 0000.0001) // CMIN =          1.000000000000000E+00
(PID.TID 0000.0001) // CMAX =          1.000000000000000E+00
(PID.TID 0000.0001) // CINT =          0.000000000000000E+00
(PID.TID 0000.0001) // SYMBOLS (CMIN->CMAX): -abcdefghijklmnopqrstuvwxyz+
(PID.TID 0000.0001) //                  0.0: .
(PID.TID 0000.0001) // RANGE I (Lo:Hi:Step):(  -1:  92:   1)
(PID.TID 0000.0001) // RANGE J (Lo:Hi:Step):(  42:  -1:  -1)
(PID.TID 0000.0001) // RANGE K (Lo:Hi:Step):(   1:   1:   1)
(PID.TID 0000.0001) // =======================================================
(PID.TID 0000.0001) // =======================================================
(PID.TID 0000.0001) // END OF FIELD                                          =
(PID.TID 0000.0001) // =======================================================
(PID.TID 0000.0001) 
(PID.TID 0000.0001) // =======================================================
(PID.TID 0000.0001) // Field hFacS at iteration          1
(PID.TID 0000.0001) // CMIN =          1.000000000000000E+00
(PID.TID 0000.0001) // CMAX =          1.000000000000000E+00
(PID.TID 0000.0001) // CINT =          0.000000000000000E+00
(PID.TID 0000.0001) // SYMBOLS (CMIN->CMAX): -abcdefghijklmnopqrstuvwxyz+
(PID.TID 0000.0001) //                  0.0: .
(PID.TID 0000.0001) // RANGE I (Lo:Hi:Step):(  -1:  92:   1)
(PID.TID 0000.0001) // RANGE J (Lo:Hi:Step):(  42:  -1:  -1)
(PID.TID 0000.0001) // RANGE K (Lo:Hi:Step):(   1:   1:   1)
(PID.TID 0000.0001) // =======================================================
(PID.TID 0000.0001) // =======================================================
(PID.TID 0000.0001) // END OF FIELD                                          =
(PID.TID 0000.0001) // =======================================================
(PID.TID 0000.0001) 
(PID.TID 0000.0001) 
(PID.TID 0000.0001) // ===================================
(PID.TID 0000.0001) // GAD parameters :
(PID.TID 0000.0001) // ===================================
(PID.TID 0000.0001) tempAdvScheme =   /* Temp. Horiz.Advection scheme selector */
(PID.TID 0000.0001)                       2
(PID.TID 0000.0001)     ;
(PID.TID 0000.0001) tempVertAdvScheme =   /* Temp. Vert. Advection scheme selector */
(PID.TID 0000.0001)                       2
(PID.TID 0000.0001)     ;
(PID.TID 0000.0001) tempMultiDimAdvec =   /* use Muti-Dim Advec method for Temp */
(PID.TID 0000.0001)                   F
(PID.TID 0000.0001)     ;
(PID.TID 0000.0001) tempAdamsBashforth =   /* use Adams-Bashforth time-stepping for Temp */
(PID.TID 0000.0001)                   T
(PID.TID 0000.0001)     ;
(PID.TID 0000.0001) saltAdvScheme =   /* Salt. Horiz.advection scheme selector */
(PID.TID 0000.0001)                       2
(PID.TID 0000.0001)     ;
(PID.TID 0000.0001) saltVertAdvScheme =   /* Salt. Vert. Advection scheme selector */
(PID.TID 0000.0001)                       2
(PID.TID 0000.0001)     ;
(PID.TID 0000.0001) saltMultiDimAdvec =   /* use Muti-Dim Advec method for Salt */
(PID.TID 0000.0001)                   F
(PID.TID 0000.0001)     ;
(PID.TID 0000.0001) saltAdamsBashforth =   /* use Adams-Bashforth time-stepping for Salt */
(PID.TID 0000.0001)                   T
(PID.TID 0000.0001)     ;
(PID.TID 0000.0001) // ===================================
(PID.TID 0000.0001) %MON fCori_max                    =   1.4226580169407E-04
(PID.TID 0000.0001) %MON fCori_min                    =  -1.4226580169407E-04
(PID.TID 0000.0001) %MON fCori_mean                   =  -2.6213599192538E-19
(PID.TID 0000.0001) %MON fCori_sd                     =   9.6335367303779E-05
(PID.TID 0000.0001) %MON fCoriG_max                   =   1.4112379284621E-04
(PID.TID 0000.0001) %MON fCoriG_min                   =  -1.4323448157692E-04
(PID.TID 0000.0001) %MON fCoriG_mean                  =  -3.6726790147922E-06
(PID.TID 0000.0001) %MON fCoriG_sd                    =   9.7510077443651E-05
(PID.TID 0000.0001) %MON fCoriCos_max                 =   1.4535550371427E-04
(PID.TID 0000.0001) %MON fCoriCos_min                 =   3.0239529651320E-05
(PID.TID 0000.0001) %MON fCoriCos_mean                =   1.0260497651149E-04
(PID.TID 0000.0001) %MON fCoriCos_sd                  =   3.6683828681187E-05
(PID.TID 0000.0001) INI_CG2D: CG2D normalisation factor =  6.0025789459946987E-09
(PID.TID 0000.0001) 
(PID.TID 0000.0001) CONFIG_CHECK: OK
(PID.TID 0000.0001) // =======================================================
(PID.TID 0000.0001) // Model configuration
(PID.TID 0000.0001) // =======================================================
(PID.TID 0000.0001) //
(PID.TID 0000.0001) // "Physical" paramters ( PARM01 in namelist )
(PID.TID 0000.0001) //
(PID.TID 0000.0001) buoyancyRelation = OCEANICP
(PID.TID 0000.0001) fluidIsAir  =  /* fluid major constituent is Air */
(PID.TID 0000.0001)                   F
(PID.TID 0000.0001)     ;
(PID.TID 0000.0001) fluidIsWater=  /* fuild major constituent is Water */
(PID.TID 0000.0001)                   T
(PID.TID 0000.0001)     ;
(PID.TID 0000.0001) usingPCoords =  /* use p (or p*) vertical coordinate */
(PID.TID 0000.0001)                   T
(PID.TID 0000.0001)     ;
(PID.TID 0000.0001) usingZCoords =  /* use z (or z*) vertical coordinate */
(PID.TID 0000.0001)                   F
(PID.TID 0000.0001)     ;
(PID.TID 0000.0001) tRef =   /* Reference temperature profile ( oC or oK ) */
(PID.TID 0000.0001)    15 @  2.000000000000000E+01              /* K =  1: 15 */
(PID.TID 0000.0001)     ;
(PID.TID 0000.0001) sRef =   /* Reference salinity profile ( ppt ) */
(PID.TID 0000.0001)    15 @  3.500000000000000E+01              /* K =  1: 15 */
(PID.TID 0000.0001)     ;
(PID.TID 0000.0001) viscAh =   /* Lateral eddy viscosity ( m^2/s ) */
(PID.TID 0000.0001)                 3.000000000000000E+05
(PID.TID 0000.0001)     ;
(PID.TID 0000.0001) viscAhMax =   /* Maximum lateral eddy viscosity ( m^2/s ) */
(PID.TID 0000.0001)                 1.000000000000000E+21
(PID.TID 0000.0001)     ;
(PID.TID 0000.0001) viscAhGrid =   /* Grid dependent lateral eddy viscosity ( non-dim. ) */
(PID.TID 0000.0001)                 0.000000000000000E+00
(PID.TID 0000.0001)     ;
(PID.TID 0000.0001) useFullLeith =   /* Use Full Form of Leith Viscosity on/off flag*/
(PID.TID 0000.0001)                   F
(PID.TID 0000.0001)     ;
(PID.TID 0000.0001) useStrainTensionVisc =   /* Use StrainTension Form of Viscous Operator on/off flag*/
(PID.TID 0000.0001)                   F
(PID.TID 0000.0001)     ;
(PID.TID 0000.0001) useAreaViscLength =   /* Use area for visc length instead of geom. mean*/
(PID.TID 0000.0001)                   F
(PID.TID 0000.0001)     ;
(PID.TID 0000.0001) viscC2leith = /* Leith harmonic visc. factor (on grad(vort),non-dim.) */
(PID.TID 0000.0001)                 0.000000000000000E+00
(PID.TID 0000.0001)     ;
(PID.TID 0000.0001) viscC2leithD = /* Leith harmonic viscosity factor (on grad(div),non-dim.) */
(PID.TID 0000.0001)                 0.000000000000000E+00
(PID.TID 0000.0001)     ;
(PID.TID 0000.0001) viscC2smag =   /* Smagorinsky harmonic viscosity factor (non-dim.) */
(PID.TID 0000.0001)                 0.000000000000000E+00
(PID.TID 0000.0001)     ;
(PID.TID 0000.0001) viscA4 =   /* Lateral biharmonic viscosity ( m^4/s ) */
(PID.TID 0000.0001)                 0.000000000000000E+00
(PID.TID 0000.0001)     ;
(PID.TID 0000.0001) viscA4Max =   /* Maximum biharmonic viscosity ( m^2/s ) */
(PID.TID 0000.0001)                 1.000000000000000E+21
(PID.TID 0000.0001)     ;
(PID.TID 0000.0001) viscA4Grid =   /* Grid dependent biharmonic viscosity ( non-dim. ) */
(PID.TID 0000.0001)                 0.000000000000000E+00
(PID.TID 0000.0001)     ;
(PID.TID 0000.0001) viscC4leith = /* Leith biharm viscosity factor (on grad(vort), non-dim.) */
(PID.TID 0000.0001)                 0.000000000000000E+00
(PID.TID 0000.0001)     ;
(PID.TID 0000.0001) viscC4leithD = /* Leith biharm viscosity factor (on grad(div), non-dim.) */
(PID.TID 0000.0001)                 0.000000000000000E+00
(PID.TID 0000.0001)     ;
(PID.TID 0000.0001) viscC4Smag = /* Smagorinsky biharm viscosity factor (non-dim) */
(PID.TID 0000.0001)                 0.000000000000000E+00
(PID.TID 0000.0001)     ;
(PID.TID 0000.0001) no_slip_sides =  /* Viscous BCs: No-slip sides */
(PID.TID 0000.0001)                   T
(PID.TID 0000.0001)     ;
(PID.TID 0000.0001) sideDragFactor = /* side-drag scaling factor (non-dim) */
(PID.TID 0000.0001)                 2.000000000000000E+00
(PID.TID 0000.0001)     ;
(PID.TID 0000.0001) viscAr =   /* Vertical eddy viscosity ( units of r^2/s ) */
(PID.TID 0000.0001)                 1.721611620915750E+05
(PID.TID 0000.0001)     ;
(PID.TID 0000.0001) no_slip_bottom =  /* Viscous BCs: No-slip bottom */
(PID.TID 0000.0001)                   F
(PID.TID 0000.0001)     ;
(PID.TID 0000.0001) bottomDragLinear = /* linear bottom-drag coefficient ( 1/s ) */
(PID.TID 0000.0001)                 0.000000000000000E+00
(PID.TID 0000.0001)     ;
(PID.TID 0000.0001) bottomDragQuadratic = /* quadratic bottom-drag coeff. ( 1/m ) */
(PID.TID 0000.0001)                 0.000000000000000E+00
(PID.TID 0000.0001)     ;
(PID.TID 0000.0001) diffKhT =   /* Laplacian diffusion of heat laterally ( m^2/s ) */
(PID.TID 0000.0001)                 1.000000000000000E+03
(PID.TID 0000.0001)     ;
(PID.TID 0000.0001) diffK4T =   /* Bihaarmonic diffusion of heat laterally ( m^4/s ) */
(PID.TID 0000.0001)                 0.000000000000000E+00
(PID.TID 0000.0001)     ;
(PID.TID 0000.0001) diffKhS =   /* Laplacian diffusion of salt laterally ( m^2/s ) */
(PID.TID 0000.0001)                 1.000000000000000E+03
(PID.TID 0000.0001)     ;
(PID.TID 0000.0001) diffK4S =   /* Bihaarmonic diffusion of salt laterally ( m^4/s ) */
(PID.TID 0000.0001)                 0.000000000000000E+00
(PID.TID 0000.0001)     ;
(PID.TID 0000.0001) diffKrNrT = /* vertical profile of vertical diffusion of Temp ( m^2/s )*/
(PID.TID 0000.0001)    15 @  5.154525811125000E+03              /* K =  1: 15 */
(PID.TID 0000.0001)     ;
(PID.TID 0000.0001) diffKrNrS = /* vertical profile of vertical diffusion of Salt ( m^2/s )*/
(PID.TID 0000.0001)    15 @  5.154525811125000E+03              /* K =  1: 15 */
(PID.TID 0000.0001)     ;
(PID.TID 0000.0001) diffKrBL79surf =   /* Surface diffusion for Bryan and Lewis 1979 ( m^2/s ) */
(PID.TID 0000.0001)                 0.000000000000000E+00
(PID.TID 0000.0001)     ;
(PID.TID 0000.0001) diffKrBL79deep =   /* Deep diffusion for Bryan and Lewis 1979 ( m^2/s ) */
(PID.TID 0000.0001)                 0.000000000000000E+00
(PID.TID 0000.0001)     ;
(PID.TID 0000.0001) diffKrBL79scl =   /* Depth scale for Bryan and Lewis 1979 ( m ) */
(PID.TID 0000.0001)                 2.000000000000000E+02
(PID.TID 0000.0001)     ;
(PID.TID 0000.0001) diffKrBL79Ho =   /* Turning depth for Bryan and Lewis 1979 ( m ) */
(PID.TID 0000.0001)                -2.000000000000000E+03
(PID.TID 0000.0001)     ;
(PID.TID 0000.0001)  Equation of State : eosType = JMD95P
(PID.TID 0000.0001) tAlpha =   /* Linear EOS thermal expansion coefficient ( 1/degree ) */
(PID.TID 0000.0001)                 1.234567000000000E+05
(PID.TID 0000.0001)     ;
(PID.TID 0000.0001) sBeta =   /* Linear EOS haline contraction coefficient ( 1/ppt ) */
(PID.TID 0000.0001)                 1.234567000000000E+05
(PID.TID 0000.0001)     ;
(PID.TID 0000.0001) rhonil =   /* Reference density ( kg/m^3 ) */
(PID.TID 0000.0001)                 1.035000000000000E+03
(PID.TID 0000.0001)     ;
(PID.TID 0000.0001) rhoConst =   /* Reference density ( kg/m^3 ) */
(PID.TID 0000.0001)                 1.035000000000000E+03
(PID.TID 0000.0001)     ;
(PID.TID 0000.0001) rhoConstFresh =   /* Reference density ( kg/m^3 ) */
(PID.TID 0000.0001)                 9.998000000000000E+02
(PID.TID 0000.0001)     ;
(PID.TID 0000.0001) gravity =   /* Gravitational acceleration ( m/s^2 ) */
(PID.TID 0000.0001)                 9.810000000000000E+00
(PID.TID 0000.0001)     ;
(PID.TID 0000.0001) gBaro =   /* Barotropic gravity ( m/s^2 ) */
(PID.TID 0000.0001)                 9.810000000000000E+00
(PID.TID 0000.0001)     ;
(PID.TID 0000.0001) rotationPeriod =   /* Rotation Period ( s ) */
(PID.TID 0000.0001)                 8.640000000000000E+04
(PID.TID 0000.0001)     ;
(PID.TID 0000.0001) omega =   /* Angular velocity ( rad/s ) */
(PID.TID 0000.0001)                 7.272205216643040E-05
(PID.TID 0000.0001)     ;
(PID.TID 0000.0001) f0 =   /* Reference coriolis parameter ( 1/s ) */
(PID.TID 0000.0001)                 1.000000000000000E-04
(PID.TID 0000.0001)     ;
(PID.TID 0000.0001) beta =   /* Beta ( 1/(m.s) ) */
(PID.TID 0000.0001)                 9.999999999999999E-12
(PID.TID 0000.0001)     ;
(PID.TID 0000.0001) freeSurfFac =   /* Implicit free surface factor */
(PID.TID 0000.0001)                 1.000000000000000E+00
(PID.TID 0000.0001)     ;
(PID.TID 0000.0001) implicitFreeSurface =   /* Implicit free surface on/off flag */
(PID.TID 0000.0001)                   T
(PID.TID 0000.0001)     ;
(PID.TID 0000.0001) rigidLid =   /* Rigid lid on/off flag */
(PID.TID 0000.0001)                   F
(PID.TID 0000.0001)     ;
(PID.TID 0000.0001) implicSurfPress =   /* Surface Pressure implicit factor (0-1)*/
(PID.TID 0000.0001)                 1.000000000000000E+00
(PID.TID 0000.0001)     ;
(PID.TID 0000.0001) implicDiv2Dflow =   /* Barot. Flow Div. implicit factor (0-1)*/
(PID.TID 0000.0001)                 1.000000000000000E+00
(PID.TID 0000.0001)     ;
(PID.TID 0000.0001) exactConserv =   /* Exact Volume Conservation on/off flag*/
(PID.TID 0000.0001)                   T
(PID.TID 0000.0001)     ;
(PID.TID 0000.0001) uniformLin_PhiSurf =   /* use uniform Bo_surf on/off flag*/
(PID.TID 0000.0001)                   T
(PID.TID 0000.0001)     ;
(PID.TID 0000.0001) nonlinFreeSurf =   /* Non-linear Free Surf. options (-1,0,1,2,3)*/
(PID.TID 0000.0001)                       4
(PID.TID 0000.0001)     ;
(PID.TID 0000.0001)      -1,0= Off ; 1,2,3= On, 2=+rescale gU,gV, 3=+update cg2d solv.
(PID.TID 0000.0001) hFacInf =   /* lower threshold for hFac (nonlinFreeSurf only)*/
(PID.TID 0000.0001)                 2.000000000000000E-01
(PID.TID 0000.0001)     ;
(PID.TID 0000.0001) hFacSup =   /* upper threshold for hFac (nonlinFreeSurf only)*/
(PID.TID 0000.0001)                 2.000000000000000E+00
(PID.TID 0000.0001)     ;
(PID.TID 0000.0001) select_rStar =   /* r* Coordinate options (not yet implemented)*/
(PID.TID 0000.0001)                       0
(PID.TID 0000.0001)     ;
(PID.TID 0000.0001) useRealFreshWaterFlux =   /* Real Fresh Water Flux on/off flag*/
(PID.TID 0000.0001)                   F
(PID.TID 0000.0001)     ;
(PID.TID 0000.0001) convertFW2Salt = /* convert F.W. Flux to Salt Flux (-1=use local S)(ppt)*/
(PID.TID 0000.0001)                 3.500000000000000E+01
(PID.TID 0000.0001)     ;
(PID.TID 0000.0001) nonHydrostatic =  /* Non-Hydrostatic on/off flag */
(PID.TID 0000.0001)                   F
(PID.TID 0000.0001)     ;
(PID.TID 0000.0001) nh_Am2 = /* Non-Hydrostatic terms scaling factor */
(PID.TID 0000.0001)                 1.000000000000000E+00
(PID.TID 0000.0001)     ;
(PID.TID 0000.0001) momStepping =  /* Momentum equation on/off flag */
(PID.TID 0000.0001)                   T
(PID.TID 0000.0001)     ;
(PID.TID 0000.0001) momAdvection =  /* Momentum advection on/off flag */
(PID.TID 0000.0001)                   T
(PID.TID 0000.0001)     ;
(PID.TID 0000.0001) momViscosity =  /* Momentum viscosity on/off flag */
(PID.TID 0000.0001)                   T
(PID.TID 0000.0001)     ;
(PID.TID 0000.0001) momImplVertAdv =/* Momentum implicit vert. advection on/off*/
(PID.TID 0000.0001)                   F
(PID.TID 0000.0001)     ;
(PID.TID 0000.0001) implicitViscosity = /* Implicit viscosity on/off flag */
(PID.TID 0000.0001)                   F
(PID.TID 0000.0001)     ;
(PID.TID 0000.0001) useCoriolis =  /* Coriolis on/off flag */
(PID.TID 0000.0001)                   T
(PID.TID 0000.0001)     ;
(PID.TID 0000.0001) useCDscheme =  /* CD scheme on/off flag */
(PID.TID 0000.0001)                   F
(PID.TID 0000.0001)     ;
(PID.TID 0000.0001) useJamartWetPoints= /* Coriolis WetPoints method flag */
(PID.TID 0000.0001)                   F
(PID.TID 0000.0001)     ;
(PID.TID 0000.0001) useJamartMomAdv= /* V.I. Non-linear terms Jamart flag */
(PID.TID 0000.0001)                   F
(PID.TID 0000.0001)     ;
(PID.TID 0000.0001) SadournyCoriolis= /* Sadourny Coriolis discr. flag */
(PID.TID 0000.0001)                   F
(PID.TID 0000.0001)     ;
(PID.TID 0000.0001) upwindVorticity= /* Upwind bias vorticity flag */
(PID.TID 0000.0001)                   F
(PID.TID 0000.0001)     ;
(PID.TID 0000.0001) useAbsVorticity= /* Work with f+zeta in Coriolis */
(PID.TID 0000.0001)                   F
(PID.TID 0000.0001)     ;
(PID.TID 0000.0001) highOrderVorticity= /* High order interp. of vort. flag */
(PID.TID 0000.0001)                   F
(PID.TID 0000.0001)     ;
(PID.TID 0000.0001) upwindShear= /* Upwind vertical Shear advection flag */
(PID.TID 0000.0001)                   F
(PID.TID 0000.0001)     ;
(PID.TID 0000.0001) selectKEscheme= /* Kinetic Energy scheme selector */
(PID.TID 0000.0001)                       0
(PID.TID 0000.0001)     ;
(PID.TID 0000.0001) momForcing =  /* Momentum forcing on/off flag */
(PID.TID 0000.0001)                   T
(PID.TID 0000.0001)     ;
(PID.TID 0000.0001) momPressureForcing =  /* Momentum pressure term on/off flag */
(PID.TID 0000.0001)                   T
(PID.TID 0000.0001)     ;
(PID.TID 0000.0001) staggerTimeStep =   /* Stagger time stepping on/off flag */
(PID.TID 0000.0001)                   F
(PID.TID 0000.0001)     ;
(PID.TID 0000.0001) multiDimAdvection =   /* enable/disable Multi-Dim Advection */
(PID.TID 0000.0001)                   T
(PID.TID 0000.0001)     ;
(PID.TID 0000.0001) useMultiDimAdvec =   /* Multi-Dim Advection is/is-not used */
(PID.TID 0000.0001)                   F
(PID.TID 0000.0001)     ;
(PID.TID 0000.0001) implicitDiffusion =/* Implicit Diffusion on/off flag */
(PID.TID 0000.0001)                   T
(PID.TID 0000.0001)     ;
(PID.TID 0000.0001) tempStepping =  /* Temperature equation on/off flag */
(PID.TID 0000.0001)                   T
(PID.TID 0000.0001)     ;
(PID.TID 0000.0001) tempAdvection=  /* Temperature advection on/off flag */
(PID.TID 0000.0001)                   T
(PID.TID 0000.0001)     ;
(PID.TID 0000.0001) tempImplVertAdv =/* Temp. implicit vert. advection on/off */
(PID.TID 0000.0001)                   F
(PID.TID 0000.0001)     ;
(PID.TID 0000.0001) tempForcing  =  /* Temperature forcing on/off flag */
(PID.TID 0000.0001)                   T
(PID.TID 0000.0001)     ;
(PID.TID 0000.0001) saltStepping =  /* Salinity equation on/off flag */
(PID.TID 0000.0001)                   T
(PID.TID 0000.0001)     ;
(PID.TID 0000.0001) saltAdvection=  /* Salinity advection on/off flag */
(PID.TID 0000.0001)                   T
(PID.TID 0000.0001)     ;
(PID.TID 0000.0001) saltImplVertAdv =/* Sali. implicit vert. advection on/off */
(PID.TID 0000.0001)                   F
(PID.TID 0000.0001)     ;
(PID.TID 0000.0001) saltForcing  =  /* Salinity forcing on/off flag */
(PID.TID 0000.0001)                   T
(PID.TID 0000.0001)     ;
(PID.TID 0000.0001)  debugMode  =  /* Debug Mode on/off flag */
(PID.TID 0000.0001)                   F
(PID.TID 0000.0001)     ;
(PID.TID 0000.0001)    debLevA  =  /* 1rst level of debugging */
(PID.TID 0000.0001)                       1
(PID.TID 0000.0001)     ;
(PID.TID 0000.0001)    debLevB  =  /* 2nd  level of debugging */
(PID.TID 0000.0001)                       2
(PID.TID 0000.0001)     ;
(PID.TID 0000.0001)  debugLevel =  /* select debugging level */
(PID.TID 0000.0001)                       1
(PID.TID 0000.0001)     ;
(PID.TID 0000.0001) //
(PID.TID 0000.0001) // Elliptic solver(s) paramters ( PARM02 in namelist )
(PID.TID 0000.0001) //
(PID.TID 0000.0001) cg2dMaxIters =   /* Upper limit on 2d con. grad iterations  */
(PID.TID 0000.0001)                     200
(PID.TID 0000.0001)     ;
(PID.TID 0000.0001) cg2dChkResFreq =   /* 2d con. grad convergence test frequency */
(PID.TID 0000.0001)                       1
(PID.TID 0000.0001)     ;
(PID.TID 0000.0001) cg2dTargetResidual =   /* 2d con. grad target residual  */
(PID.TID 0000.0001)                 1.000000000000000E-09
(PID.TID 0000.0001)     ;
(PID.TID 0000.0001) cg2dTargetResWunit =   /* CG2d target residual [W units] */
(PID.TID 0000.0001)                -1.000000000000000E+00
(PID.TID 0000.0001)     ;
(PID.TID 0000.0001) cg2dPreCondFreq =   /* Freq. for updating cg2d preconditioner */
(PID.TID 0000.0001)                       1
(PID.TID 0000.0001)     ;
(PID.TID 0000.0001) //
(PID.TID 0000.0001) // Time stepping paramters ( PARM03 in namelist )
(PID.TID 0000.0001) //
(PID.TID 0000.0001) nIter0 =   /* Run starting timestep number  */
(PID.TID 0000.0001)                       0
(PID.TID 0000.0001)     ;
(PID.TID 0000.0001) nTimeSteps =   /* Number of timesteps */
(PID.TID 0000.0001)                      20
(PID.TID 0000.0001)     ;
(PID.TID 0000.0001) deltatTmom =   /* Momentum equation timestep ( s ) */
(PID.TID 0000.0001)                 1.200000000000000E+03
(PID.TID 0000.0001)     ;
(PID.TID 0000.0001) deltaTfreesurf =   /* FreeSurface equation timestep ( s ) */
(PID.TID 0000.0001)                 1.728000000000000E+05
(PID.TID 0000.0001)     ;
(PID.TID 0000.0001) dTtracerLev =   /* Tracer equation timestep ( s ) */
(PID.TID 0000.0001)    15 @  1.728000000000000E+05              /* K =  1: 15 */
(PID.TID 0000.0001)     ;
(PID.TID 0000.0001) deltatTClock  =   /* Model clock timestep ( s ) */
(PID.TID 0000.0001)                 1.728000000000000E+05
(PID.TID 0000.0001)     ;
(PID.TID 0000.0001) cAdjFreq =   /* Convective adjustment interval ( s ) */
(PID.TID 0000.0001)                 0.000000000000000E+00
(PID.TID 0000.0001)     ;
(PID.TID 0000.0001) forcing_In_AB =   /* put T,S Forcing in Adams-Bash. stepping */
(PID.TID 0000.0001)                   T
(PID.TID 0000.0001)     ;
(PID.TID 0000.0001) abEps =   /* Adams-Bashforth-2 stabilizing weight */
(PID.TID 0000.0001)                 1.000000000000000E-01
(PID.TID 0000.0001)     ;
(PID.TID 0000.0001) baseTime =   /* Model base time ( s ). */
(PID.TID 0000.0001)                 0.000000000000000E+00
(PID.TID 0000.0001)     ;
(PID.TID 0000.0001) startTime =   /* Run start time ( s ). */
(PID.TID 0000.0001)                 0.000000000000000E+00
(PID.TID 0000.0001)     ;
(PID.TID 0000.0001) endTime =   /* Integration ending time ( s ). */
(PID.TID 0000.0001)                 3.456000000000000E+06
(PID.TID 0000.0001)     ;
(PID.TID 0000.0001) pChkPtFreq =   /* Permanent restart/checkpoint file interval ( s ). */
(PID.TID 0000.0001)                 3.110400000000000E+09
(PID.TID 0000.0001)     ;
(PID.TID 0000.0001) chkPtFreq =   /* Rolling restart/checkpoint file interval ( s ). */
(PID.TID 0000.0001)                 0.000000000000000E+00
(PID.TID 0000.0001)     ;
(PID.TID 0000.0001) pickup_write_mdsio =   /* Model IO flag. */
(PID.TID 0000.0001)                   T
(PID.TID 0000.0001)     ;
(PID.TID 0000.0001) pickup_read_mdsio =   /* Model IO flag. */
(PID.TID 0000.0001)                   T
(PID.TID 0000.0001)     ;
(PID.TID 0000.0001) pickup_write_immed =   /* Model IO flag. */
(PID.TID 0000.0001)                   F
(PID.TID 0000.0001)     ;
(PID.TID 0000.0001) dumpFreq =   /* Model state write out interval ( s ). */
(PID.TID 0000.0001)                 3.110400000000000E+09
(PID.TID 0000.0001)     ;
(PID.TID 0000.0001) dumpInitAndLast= /* write out Initial & Last iter. model state */
(PID.TID 0000.0001)                   T
(PID.TID 0000.0001)     ;
(PID.TID 0000.0001) snapshot_mdsio =   /* Model IO flag. */
(PID.TID 0000.0001)                   T
(PID.TID 0000.0001)     ;
(PID.TID 0000.0001) monitorFreq =   /* Monitor output interval ( s ). */
(PID.TID 0000.0001)                 1.000000000000000E+00
(PID.TID 0000.0001)     ;
(PID.TID 0000.0001) monitor_stdio =   /* Model IO flag. */
(PID.TID 0000.0001)                   T
(PID.TID 0000.0001)     ;
(PID.TID 0000.0001) externForcingPeriod =   /* forcing period (s) */
(PID.TID 0000.0001)                 2.592000000000000E+06
(PID.TID 0000.0001)     ;
(PID.TID 0000.0001) externForcingCycle =   /* period of the cyle (s). */
(PID.TID 0000.0001)                 3.110400000000000E+07
(PID.TID 0000.0001)     ;
(PID.TID 0000.0001) tauThetaClimRelax =   /* relaxation time scale (s) */
(PID.TID 0000.0001)                 5.184000000000000E+06
(PID.TID 0000.0001)     ;
(PID.TID 0000.0001) tauSaltClimRelax =   /* relaxation time scale (s) */
(PID.TID 0000.0001)                 0.000000000000000E+00
(PID.TID 0000.0001)     ;
(PID.TID 0000.0001) latBandClimRelax =   /* max. Lat. where relaxation */
(PID.TID 0000.0001)                 1.800000000000000E+02
(PID.TID 0000.0001)     ;
(PID.TID 0000.0001) //
(PID.TID 0000.0001) // Gridding paramters ( PARM04 in namelist )
(PID.TID 0000.0001) //
(PID.TID 0000.0001) usingCartesianGrid =   /* Cartesian coordinates flag ( True / False ) */
(PID.TID 0000.0001)                   F
(PID.TID 0000.0001)     ;
(PID.TID 0000.0001) usingSphericalPolarGrid =   /* Spherical coordinates flag ( True / False ) */
(PID.TID 0000.0001)                   T
(PID.TID 0000.0001)     ;
(PID.TID 0000.0001) usingCylindricalGrid =   /* Spherical coordinates flag ( True / False ) */
(PID.TID 0000.0001)                   F
(PID.TID 0000.0001)     ;
(PID.TID 0000.0001) Ro_SeaLevel =   /* r(1) ( units of r ) */
(PID.TID 0000.0001)                 5.302312256608400E+07
(PID.TID 0000.0001)     ;
(PID.TID 0000.0001) rkSign =   /* index orientation relative to vertical coordinate */
(PID.TID 0000.0001)                -1.000000000000000E+00
(PID.TID 0000.0001)     ;
(PID.TID 0000.0001) horiVertRatio =   /* Ratio on units : Horiz - Vertical */
(PID.TID 0000.0001)                 1.015335000000000E+04
(PID.TID 0000.0001)     ;
(PID.TID 0000.0001) drC =   /* C spacing ( units of r ) */
(PID.TID 0000.0001)                 3.551650360010500E+06,      /* K =  1 */
(PID.TID 0000.0001)                 6.836924580405500E+06,      /* K =  2 */
(PID.TID 0000.0001)                 6.306109225519501E+06,      /* K =  3 */
(PID.TID 0000.0001)                 5.779053338153000E+06,      /* K =  4 */
(PID.TID 0000.0001)                 5.255519350233500E+06,      /* K =  5 */
(PID.TID 0000.0001)                 4.735252734850001E+06,      /* K =  6 */
(PID.TID 0000.0001)                 4.217983340545500E+06,      /* K =  7 */
(PID.TID 0000.0001)                 3.703426779226000E+06,      /* K =  8 */
(PID.TID 0000.0001)                 3.191285859157500E+06,      /* K =  9 */
(PID.TID 0000.0001)                 2.681252055355000E+06,      /* K = 10 */
(PID.TID 0000.0001)                 2.173007010517000E+06,      /* K = 11 */
(PID.TID 0000.0001)                 1.666224060479000E+06,      /* K = 12 */
(PID.TID 0000.0001)                 1.211001777568000E+06,      /* K = 13 */
(PID.TID 0000.0001)                 8.573828878235000E+05,      /* K = 14 */
(PID.TID 0000.0001)                 6.050043594899999E+05       /* K = 15 */
(PID.TID 0000.0001)     ;
(PID.TID 0000.0001) drF =   /* W spacing ( units of r ) */
(PID.TID 0000.0001)                 7.103300720021000E+06,      /* K =  1 */
(PID.TID 0000.0001)                 6.570548440790000E+06,      /* K =  2 */
(PID.TID 0000.0001)                 6.041670010249000E+06,      /* K =  3 */
(PID.TID 0000.0001)                 5.516436666057000E+06,      /* K =  4 */
(PID.TID 0000.0001)                 4.994602034410000E+06,      /* K =  5 */
(PID.TID 0000.0001)                 4.475903435290000E+06,      /* K =  6 */
(PID.TID 0000.0001)                 3.960063245801000E+06,      /* K =  7 */
(PID.TID 0000.0001)                 3.446790312651000E+06,      /* K =  8 */
(PID.TID 0000.0001)                 2.935781405664000E+06,      /* K =  9 */
(PID.TID 0000.0001)                 2.426722705046000E+06,      /* K = 10 */
(PID.TID 0000.0001)                 1.919291315988000E+06,      /* K = 11 */
(PID.TID 0000.0001)                 1.413156804970000E+06,      /* K = 12 */
(PID.TID 0000.0001)                 1.008846750166000E+06,      /* K = 13 */
(PID.TID 0000.0001)                 7.059190254810000E+05,      /* K = 14 */
(PID.TID 0000.0001)                 5.040896934990000E+05       /* K = 15 */
(PID.TID 0000.0001)     ;
(PID.TID 0000.0001) delX =   /* U spacing ( m - cartesian, degrees - spherical ) */
(PID.TID 0000.0001)    90 @  4.000000000000000E+00              /* I =  1: 90 */
(PID.TID 0000.0001)     ;
(PID.TID 0000.0001) delY =   /* V spacing ( m - cartesian, degrees - spherical ) */
(PID.TID 0000.0001)    40 @  4.000000000000000E+00              /* J =  1: 40 */
(PID.TID 0000.0001)     ;
(PID.TID 0000.0001) phiMin =    /* South edge (ignored - cartesian, degrees - spherical ) */
(PID.TID 0000.0001)                -8.000000000000000E+01
(PID.TID 0000.0001)     ;
(PID.TID 0000.0001) thetaMin =    /* West edge ( ignored - cartesian, degrees - spherical ) */
(PID.TID 0000.0001)                 0.000000000000000E+00
(PID.TID 0000.0001)     ;
(PID.TID 0000.0001) rSphere =    /* Radius ( ignored - cartesian, m - spherical ) */
(PID.TID 0000.0001)                 6.370000000000000E+06
(PID.TID 0000.0001)     ;
(PID.TID 0000.0001) xcoord =   /* P-point X coord ( m - cartesian, degrees - spherical ) */
(PID.TID 0000.0001)                 2.000000000000000E+00,      /* I =  1 */
(PID.TID 0000.0001)                 6.000000000000000E+00,      /* I =  2 */
(PID.TID 0000.0001)                 1.000000000000000E+01,      /* I =  3 */
(PID.TID 0000.0001)                 1.400000000000000E+01,      /* I =  4 */
(PID.TID 0000.0001)                 1.800000000000000E+01,      /* I =  5 */
(PID.TID 0000.0001)                 2.200000000000000E+01,      /* I =  6 */
(PID.TID 0000.0001)                 2.600000000000000E+01,      /* I =  7 */
(PID.TID 0000.0001)                 3.000000000000000E+01,      /* I =  8 */
(PID.TID 0000.0001)                 3.400000000000000E+01,      /* I =  9 */
(PID.TID 0000.0001)                 3.800000000000000E+01,      /* I = 10 */
(PID.TID 0000.0001)                 4.200000000000000E+01,      /* I = 11 */
(PID.TID 0000.0001)                 4.600000000000000E+01,      /* I = 12 */
(PID.TID 0000.0001)                 5.000000000000000E+01,      /* I = 13 */
(PID.TID 0000.0001)                 5.400000000000000E+01,      /* I = 14 */
(PID.TID 0000.0001)                 5.800000000000000E+01,      /* I = 15 */
(PID.TID 0000.0001)                 6.200000000000000E+01,      /* I = 16 */
(PID.TID 0000.0001)                 6.600000000000000E+01,      /* I = 17 */
(PID.TID 0000.0001)                 7.000000000000000E+01,      /* I = 18 */
(PID.TID 0000.0001)                 7.400000000000000E+01,      /* I = 19 */
(PID.TID 0000.0001)                 7.800000000000000E+01,      /* I = 20 */
(PID.TID 0000.0001)                 8.200000000000000E+01,      /* I = 21 */
(PID.TID 0000.0001)                 8.600000000000000E+01,      /* I = 22 */
(PID.TID 0000.0001)                 9.000000000000000E+01,      /* I = 23 */
(PID.TID 0000.0001)                 9.400000000000000E+01,      /* I = 24 */
(PID.TID 0000.0001)                 9.800000000000000E+01,      /* I = 25 */
(PID.TID 0000.0001)                 1.020000000000000E+02,      /* I = 26 */
(PID.TID 0000.0001)                 1.060000000000000E+02,      /* I = 27 */
(PID.TID 0000.0001)                 1.100000000000000E+02,      /* I = 28 */
(PID.TID 0000.0001)                 1.140000000000000E+02,      /* I = 29 */
(PID.TID 0000.0001)                 1.180000000000000E+02,      /* I = 30 */
(PID.TID 0000.0001)                 1.220000000000000E+02,      /* I = 31 */
(PID.TID 0000.0001)                 1.260000000000000E+02,      /* I = 32 */
(PID.TID 0000.0001)                 1.300000000000000E+02,      /* I = 33 */
(PID.TID 0000.0001)                 1.340000000000000E+02,      /* I = 34 */
(PID.TID 0000.0001)                 1.380000000000000E+02,      /* I = 35 */
(PID.TID 0000.0001)                 1.420000000000000E+02,      /* I = 36 */
(PID.TID 0000.0001)                 1.460000000000000E+02,      /* I = 37 */
(PID.TID 0000.0001)                 1.500000000000000E+02,      /* I = 38 */
(PID.TID 0000.0001)                 1.540000000000000E+02,      /* I = 39 */
(PID.TID 0000.0001)                 1.580000000000000E+02,      /* I = 40 */
(PID.TID 0000.0001)                 1.620000000000000E+02,      /* I = 41 */
(PID.TID 0000.0001)                 1.660000000000000E+02,      /* I = 42 */
(PID.TID 0000.0001)                 1.700000000000000E+02,      /* I = 43 */
(PID.TID 0000.0001)                 1.740000000000000E+02,      /* I = 44 */
(PID.TID 0000.0001)                 1.780000000000000E+02,      /* I = 45 */
(PID.TID 0000.0001)                 1.820000000000000E+02,      /* I = 46 */
(PID.TID 0000.0001)                 1.860000000000000E+02,      /* I = 47 */
(PID.TID 0000.0001)                 1.900000000000000E+02,      /* I = 48 */
(PID.TID 0000.0001)                 1.940000000000000E+02,      /* I = 49 */
(PID.TID 0000.0001)                 1.980000000000000E+02,      /* I = 50 */
(PID.TID 0000.0001)                 2.020000000000000E+02,      /* I = 51 */
(PID.TID 0000.0001)                 2.060000000000000E+02,      /* I = 52 */
(PID.TID 0000.0001)                 2.100000000000000E+02,      /* I = 53 */
(PID.TID 0000.0001)                 2.140000000000000E+02,      /* I = 54 */
(PID.TID 0000.0001)                 2.180000000000000E+02,      /* I = 55 */
(PID.TID 0000.0001)                 2.220000000000000E+02,      /* I = 56 */
(PID.TID 0000.0001)                 2.260000000000000E+02,      /* I = 57 */
(PID.TID 0000.0001)                 2.300000000000000E+02,      /* I = 58 */
(PID.TID 0000.0001)                 2.340000000000000E+02,      /* I = 59 */
(PID.TID 0000.0001)                 2.380000000000000E+02,      /* I = 60 */
(PID.TID 0000.0001)                 2.420000000000000E+02,      /* I = 61 */
(PID.TID 0000.0001)                 2.460000000000000E+02,      /* I = 62 */
(PID.TID 0000.0001)                 2.500000000000000E+02,      /* I = 63 */
(PID.TID 0000.0001)                 2.540000000000000E+02,      /* I = 64 */
(PID.TID 0000.0001)                 2.580000000000000E+02,      /* I = 65 */
(PID.TID 0000.0001)                 2.620000000000000E+02,      /* I = 66 */
(PID.TID 0000.0001)                 2.660000000000000E+02,      /* I = 67 */
(PID.TID 0000.0001)                 2.700000000000000E+02,      /* I = 68 */
(PID.TID 0000.0001)                 2.740000000000000E+02,      /* I = 69 */
(PID.TID 0000.0001)                 2.780000000000000E+02,      /* I = 70 */
(PID.TID 0000.0001)                 2.820000000000000E+02,      /* I = 71 */
(PID.TID 0000.0001)                 2.860000000000000E+02,      /* I = 72 */
(PID.TID 0000.0001)                 2.900000000000000E+02,      /* I = 73 */
(PID.TID 0000.0001)                 2.940000000000000E+02,      /* I = 74 */
(PID.TID 0000.0001)                 2.980000000000000E+02,      /* I = 75 */
(PID.TID 0000.0001)                 3.020000000000000E+02,      /* I = 76 */
(PID.TID 0000.0001)                 3.060000000000000E+02,      /* I = 77 */
(PID.TID 0000.0001)                 3.100000000000000E+02,      /* I = 78 */
(PID.TID 0000.0001)                 3.140000000000000E+02,      /* I = 79 */
(PID.TID 0000.0001)                 3.180000000000000E+02,      /* I = 80 */
(PID.TID 0000.0001)                 3.220000000000000E+02,      /* I = 81 */
(PID.TID 0000.0001)                 3.260000000000000E+02,      /* I = 82 */
(PID.TID 0000.0001)                 3.300000000000000E+02,      /* I = 83 */
(PID.TID 0000.0001)                 3.340000000000000E+02,      /* I = 84 */
(PID.TID 0000.0001)                 3.380000000000000E+02,      /* I = 85 */
(PID.TID 0000.0001)                 3.420000000000000E+02,      /* I = 86 */
(PID.TID 0000.0001)                 3.460000000000000E+02,      /* I = 87 */
(PID.TID 0000.0001)                 3.500000000000000E+02,      /* I = 88 */
(PID.TID 0000.0001)                 3.540000000000000E+02,      /* I = 89 */
(PID.TID 0000.0001)                 3.580000000000000E+02       /* I = 90 */
(PID.TID 0000.0001)     ;
(PID.TID 0000.0001) ycoord =   /* P-point Y coord ( m - cartesian, degrees - spherical ) */
(PID.TID 0000.0001)                -7.800000000000000E+01,      /* J =  1 */
(PID.TID 0000.0001)                -7.400000000000000E+01,      /* J =  2 */
(PID.TID 0000.0001)                -7.000000000000000E+01,      /* J =  3 */
(PID.TID 0000.0001)                -6.600000000000000E+01,      /* J =  4 */
(PID.TID 0000.0001)                -6.200000000000000E+01,      /* J =  5 */
(PID.TID 0000.0001)                -5.800000000000000E+01,      /* J =  6 */
(PID.TID 0000.0001)                -5.400000000000000E+01,      /* J =  7 */
(PID.TID 0000.0001)                -5.000000000000000E+01,      /* J =  8 */
(PID.TID 0000.0001)                -4.600000000000000E+01,      /* J =  9 */
(PID.TID 0000.0001)                -4.200000000000000E+01,      /* J = 10 */
(PID.TID 0000.0001)                -3.800000000000000E+01,      /* J = 11 */
(PID.TID 0000.0001)                -3.400000000000000E+01,      /* J = 12 */
(PID.TID 0000.0001)                -3.000000000000000E+01,      /* J = 13 */
(PID.TID 0000.0001)                -2.600000000000000E+01,      /* J = 14 */
(PID.TID 0000.0001)                -2.200000000000000E+01,      /* J = 15 */
(PID.TID 0000.0001)                -1.800000000000000E+01,      /* J = 16 */
(PID.TID 0000.0001)                -1.400000000000000E+01,      /* J = 17 */
(PID.TID 0000.0001)                -1.000000000000000E+01,      /* J = 18 */
(PID.TID 0000.0001)                -6.000000000000000E+00,      /* J = 19 */
(PID.TID 0000.0001)                -2.000000000000000E+00,      /* J = 20 */
(PID.TID 0000.0001)                 2.000000000000000E+00,      /* J = 21 */
(PID.TID 0000.0001)                 6.000000000000000E+00,      /* J = 22 */
(PID.TID 0000.0001)                 1.000000000000000E+01,      /* J = 23 */
(PID.TID 0000.0001)                 1.400000000000000E+01,      /* J = 24 */
(PID.TID 0000.0001)                 1.800000000000000E+01,      /* J = 25 */
(PID.TID 0000.0001)                 2.200000000000000E+01,      /* J = 26 */
(PID.TID 0000.0001)                 2.600000000000000E+01,      /* J = 27 */
(PID.TID 0000.0001)                 3.000000000000000E+01,      /* J = 28 */
(PID.TID 0000.0001)                 3.400000000000000E+01,      /* J = 29 */
(PID.TID 0000.0001)                 3.800000000000000E+01,      /* J = 30 */
(PID.TID 0000.0001)                 4.200000000000000E+01,      /* J = 31 */
(PID.TID 0000.0001)                 4.600000000000000E+01,      /* J = 32 */
(PID.TID 0000.0001)                 5.000000000000000E+01,      /* J = 33 */
(PID.TID 0000.0001)                 5.400000000000000E+01,      /* J = 34 */
(PID.TID 0000.0001)                 5.800000000000000E+01,      /* J = 35 */
(PID.TID 0000.0001)                 6.200000000000000E+01,      /* J = 36 */
(PID.TID 0000.0001)                 6.600000000000000E+01,      /* J = 37 */
(PID.TID 0000.0001)                 7.000000000000000E+01,      /* J = 38 */
(PID.TID 0000.0001)                 7.400000000000000E+01,      /* J = 39 */
(PID.TID 0000.0001)                 7.800000000000000E+01       /* J = 40 */
(PID.TID 0000.0001)     ;
(PID.TID 0000.0001) rcoord =   /* P-point R coordinate (  units of r ) */
(PID.TID 0000.0001)                 4.947147220607350E+07,      /* K =  1 */
(PID.TID 0000.0001)                 4.263454762566800E+07,      /* K =  2 */
(PID.TID 0000.0001)                 3.632843840014850E+07,      /* K =  3 */
(PID.TID 0000.0001)                 3.054938506199550E+07,      /* K =  4 */
(PID.TID 0000.0001)                 2.529386571176200E+07,      /* K =  5 */
(PID.TID 0000.0001)                 2.055861297691200E+07,      /* K =  6 */
(PID.TID 0000.0001)                 1.634062963636650E+07,      /* K =  7 */
(PID.TID 0000.0001)                 1.263720285714050E+07,      /* K =  8 */
(PID.TID 0000.0001)                 9.445916997983005E+06,      /* K =  9 */
(PID.TID 0000.0001)                 6.764664942628005E+06,      /* K = 10 */
(PID.TID 0000.0001)                 4.591657932111004E+06,      /* K = 11 */
(PID.TID 0000.0001)                 2.925433871632004E+06,      /* K = 12 */
(PID.TID 0000.0001)                 1.714432094064004E+06,      /* K = 13 */
(PID.TID 0000.0001)                 8.570492062405043E+05,      /* K = 14 */
(PID.TID 0000.0001)                 2.520448467505043E+05       /* K = 15 */
(PID.TID 0000.0001)     ;
(PID.TID 0000.0001) rF =   /* W-Interf. R coordinate (  units of r ) */
(PID.TID 0000.0001)                 5.302312256608400E+07,      /* K =  1 */
(PID.TID 0000.0001)                 4.591982184606300E+07,      /* K =  2 */
(PID.TID 0000.0001)                 3.934927340527300E+07,      /* K =  3 */
(PID.TID 0000.0001)                 3.330760339502400E+07,      /* K =  4 */
(PID.TID 0000.0001)                 2.779116672896700E+07,      /* K =  5 */
(PID.TID 0000.0001)                 2.279656469455700E+07,      /* K =  6 */
(PID.TID 0000.0001)                 1.832066125926699E+07,      /* K =  7 */
(PID.TID 0000.0001)                 1.436059801346599E+07,      /* K =  8 */
(PID.TID 0000.0001)                 1.091380770081500E+07,      /* K =  9 */
(PID.TID 0000.0001)                 7.978026295150995E+06,      /* K = 10 */
(PID.TID 0000.0001)                 5.551303590104995E+06,      /* K = 11 */
(PID.TID 0000.0001)                 3.632012274116995E+06,      /* K = 12 */
(PID.TID 0000.0001)                 2.218855469146995E+06,      /* K = 13 */
(PID.TID 0000.0001)                 1.210008718980995E+06,      /* K = 14 */
(PID.TID 0000.0001)                 5.040896934999955E+05,      /* K = 15 */
(PID.TID 0000.0001)                 9.955256246030331E-07       /* K = 16 */
(PID.TID 0000.0001)     ;
(PID.TID 0000.0001) dxF =  /* dxF(:,1,:,1) ( m - cartesian, degrees - spherical ) */
(PID.TID 0000.0001)    90 @  9.246038586187513E+04              /* I =  1: 90 */
(PID.TID 0000.0001)     ;
(PID.TID 0000.0001) dxF =  /* dxF(1,:,1,:) ( m - cartesian, degrees - spherical ) */
(PID.TID 0000.0001)                 9.246038586187513E+04,      /* J =  1 */
(PID.TID 0000.0001)                 1.225786591246834E+05,      /* J =  2 */
(PID.TID 0000.0001)                 1.520997414818001E+05,      /* J =  3 */
(PID.TID 0000.0001)                 1.808798091874300E+05,      /* J =  4 */
(PID.TID 0000.0001)                 2.087786486446736E+05,      /* J =  5 */
(PID.TID 0000.0001)                 2.356603395120765E+05,      /* J =  6 */
(PID.TID 0000.0001)                 2.613939168938713E+05,      /* J =  7 */
(PID.TID 0000.0001)                 2.858540093877838E+05,      /* J =  8 */
(PID.TID 0000.0001)                 3.089214498819034E+05,      /* J =  9 */
(PID.TID 0000.0001)                 3.304838561248741E+05,      /* J = 10 */
(PID.TID 0000.0001)                 3.504361782409254E+05,      /* J = 11 */
(PID.TID 0000.0001)                 3.686812105223082E+05,      /* J = 12 */
(PID.TID 0000.0001)                 3.851300650057323E+05,      /* J = 13 */
(PID.TID 0000.0001)                 3.997026045255871E+05,      /* J = 14 */
(PID.TID 0000.0001)                 4.123278331341585E+05,      /* J = 15 */
(PID.TID 0000.0001)                 4.229442419867491E+05,      /* J = 16 */
(PID.TID 0000.0001)                 4.315001090065870E+05,      /* J = 17 */
(PID.TID 0000.0001)                 4.379537508695838E+05,      /* J = 18 */
(PID.TID 0000.0001)                 4.422737260813012E+05,      /* J = 19 */
(PID.TID 0000.0001)     2 @  4.444389881567502E+05,             /* J = 20: 21 */
(PID.TID 0000.0001)                 4.422737260813012E+05,      /* J = 22 */
(PID.TID 0000.0001)                 4.379537508695838E+05,      /* J = 23 */
(PID.TID 0000.0001)                 4.315001090065870E+05,      /* J = 24 */
(PID.TID 0000.0001)                 4.229442419867491E+05,      /* J = 25 */
(PID.TID 0000.0001)                 4.123278331341585E+05,      /* J = 26 */
(PID.TID 0000.0001)                 3.997026045255871E+05,      /* J = 27 */
(PID.TID 0000.0001)                 3.851300650057323E+05,      /* J = 28 */
(PID.TID 0000.0001)                 3.686812105223082E+05,      /* J = 29 */
(PID.TID 0000.0001)                 3.504361782409254E+05,      /* J = 30 */
(PID.TID 0000.0001)                 3.304838561248741E+05,      /* J = 31 */
(PID.TID 0000.0001)                 3.089214498819034E+05,      /* J = 32 */
(PID.TID 0000.0001)                 2.858540093877838E+05,      /* J = 33 */
(PID.TID 0000.0001)                 2.613939168938713E+05,      /* J = 34 */
(PID.TID 0000.0001)                 2.356603395120765E+05,      /* J = 35 */
(PID.TID 0000.0001)                 2.087786486446736E+05,      /* J = 36 */
(PID.TID 0000.0001)                 1.808798091874300E+05,      /* J = 37 */
(PID.TID 0000.0001)                 1.520997414818001E+05,      /* J = 38 */
(PID.TID 0000.0001)                 1.225786591246834E+05,      /* J = 39 */
(PID.TID 0000.0001)                 9.246038586187513E+04       /* J = 40 */
(PID.TID 0000.0001)     ;
(PID.TID 0000.0001) dyF =  /* dyF(:,1,:,1) ( m - cartesian, degrees - spherical ) */
(PID.TID 0000.0001)    90 @  4.447098934081552E+05              /* I =  1: 90 */
(PID.TID 0000.0001)     ;
(PID.TID 0000.0001) dyF =  /* dyF(1,:,1,:) ( m - cartesian, degrees - spherical ) */
(PID.TID 0000.0001)    40 @  4.447098934081552E+05              /* J =  1: 40 */
(PID.TID 0000.0001)     ;
(PID.TID 0000.0001) dxG =  /* dxG(:,1,:,1) ( m - cartesian, degrees - spherical ) */
(PID.TID 0000.0001)    90 @  7.722306258078101E+04              /* I =  1: 90 */
(PID.TID 0000.0001)     ;
(PID.TID 0000.0001) dxG =  /* dxG(1,:,1,:) ( m - cartesian, degrees - spherical ) */
(PID.TID 0000.0001)                 7.722306258078101E+04,      /* J =  1 */
(PID.TID 0000.0001)                 1.075850604052271E+05,      /* J =  2 */
(PID.TID 0000.0001)                 1.374229146297914E+05,      /* J =  3 */
(PID.TID 0000.0001)                 1.665912582279823E+05,      /* J =  4 */
(PID.TID 0000.0001)                 1.949479859617814E+05,      /* J =  5 */
(PID.TID 0000.0001)                 2.223549467040777E+05,      /* J =  6 */
(PID.TID 0000.0001)                 2.486786164970726E+05,      /* J =  7 */
(PID.TID 0000.0001)                 2.737907490675810E+05,      /* J =  8 */
(PID.TID 0000.0001)                 2.975690006299821E+05,      /* J =  9 */
(PID.TID 0000.0001)                 3.198975259328452E+05,      /* J = 10 */
(PID.TID 0000.0001)                 3.406675426453503E+05,      /* J = 11 */
(PID.TID 0000.0001)                 3.597778613338690E+05,      /* J = 12 */
(PID.TID 0000.0001)                 3.771353784467131E+05,      /* J = 13 */
(PID.TID 0000.0001)                 3.926555299052806E+05,      /* J = 14 */
(PID.TID 0000.0001)                 4.062627030917454E+05,      /* J = 15 */
(PID.TID 0000.0001)                 4.178906052261313E+05,      /* J = 16 */
(PID.TID 0000.0001)                 4.274825863380723E+05,      /* J = 17 */
(PID.TID 0000.0001)                 4.349919152597734E+05,      /* J = 18 */
(PID.TID 0000.0001)                 4.403820072955634E+05,      /* J = 19 */
(PID.TID 0000.0001)                 4.436266024588540E+05,      /* J = 20 */
(PID.TID 0000.0001)                 4.447098934081552E+05,      /* J = 21 */
(PID.TID 0000.0001)                 4.436266024588540E+05,      /* J = 22 */
(PID.TID 0000.0001)                 4.403820072955634E+05,      /* J = 23 */
(PID.TID 0000.0001)                 4.349919152597734E+05,      /* J = 24 */
(PID.TID 0000.0001)                 4.274825863380723E+05,      /* J = 25 */
(PID.TID 0000.0001)                 4.178906052261313E+05,      /* J = 26 */
(PID.TID 0000.0001)                 4.062627030917454E+05,      /* J = 27 */
(PID.TID 0000.0001)                 3.926555299052806E+05,      /* J = 28 */
(PID.TID 0000.0001)                 3.771353784467131E+05,      /* J = 29 */
(PID.TID 0000.0001)                 3.597778613338690E+05,      /* J = 30 */
(PID.TID 0000.0001)                 3.406675426453503E+05,      /* J = 31 */
(PID.TID 0000.0001)                 3.198975259328452E+05,      /* J = 32 */
(PID.TID 0000.0001)                 2.975690006299821E+05,      /* J = 33 */
(PID.TID 0000.0001)                 2.737907490675810E+05,      /* J = 34 */
(PID.TID 0000.0001)                 2.486786164970726E+05,      /* J = 35 */
(PID.TID 0000.0001)                 2.223549467040777E+05,      /* J = 36 */
(PID.TID 0000.0001)                 1.949479859617814E+05,      /* J = 37 */
(PID.TID 0000.0001)                 1.665912582279823E+05,      /* J = 38 */
(PID.TID 0000.0001)                 1.374229146297914E+05,      /* J = 39 */
(PID.TID 0000.0001)                 1.075850604052271E+05       /* J = 40 */
(PID.TID 0000.0001)     ;
(PID.TID 0000.0001) dyG =  /* dyG(:,1,:,1) ( m - cartesian, degrees - spherical ) */
(PID.TID 0000.0001)    90 @  4.447098934081552E+05              /* I =  1: 90 */
(PID.TID 0000.0001)     ;
(PID.TID 0000.0001) dyG =  /* dyG(1,:,1,:) ( m - cartesian, degrees - spherical ) */
(PID.TID 0000.0001)    40 @  4.447098934081552E+05              /* J =  1: 40 */
(PID.TID 0000.0001)     ;
(PID.TID 0000.0001) dxC =  /* dxC(:,1,:,1) ( m - cartesian, degrees - spherical ) */
(PID.TID 0000.0001)    90 @  9.246038586187513E+04              /* I =  1: 90 */
(PID.TID 0000.0001)     ;
(PID.TID 0000.0001) dxC =  /* dxC(1,:,1,:) ( m - cartesian, degrees - spherical ) */
(PID.TID 0000.0001)                 9.246038586187513E+04,      /* J =  1 */
(PID.TID 0000.0001)                 1.225786591246834E+05,      /* J =  2 */
(PID.TID 0000.0001)                 1.520997414818001E+05,      /* J =  3 */
(PID.TID 0000.0001)                 1.808798091874300E+05,      /* J =  4 */
(PID.TID 0000.0001)                 2.087786486446736E+05,      /* J =  5 */
(PID.TID 0000.0001)                 2.356603395120765E+05,      /* J =  6 */
(PID.TID 0000.0001)                 2.613939168938713E+05,      /* J =  7 */
(PID.TID 0000.0001)                 2.858540093877838E+05,      /* J =  8 */
(PID.TID 0000.0001)                 3.089214498819034E+05,      /* J =  9 */
(PID.TID 0000.0001)                 3.304838561248741E+05,      /* J = 10 */
(PID.TID 0000.0001)                 3.504361782409254E+05,      /* J = 11 */
(PID.TID 0000.0001)                 3.686812105223082E+05,      /* J = 12 */
(PID.TID 0000.0001)                 3.851300650057323E+05,      /* J = 13 */
(PID.TID 0000.0001)                 3.997026045255871E+05,      /* J = 14 */
(PID.TID 0000.0001)                 4.123278331341585E+05,      /* J = 15 */
(PID.TID 0000.0001)                 4.229442419867491E+05,      /* J = 16 */
(PID.TID 0000.0001)                 4.315001090065870E+05,      /* J = 17 */
(PID.TID 0000.0001)                 4.379537508695838E+05,      /* J = 18 */
(PID.TID 0000.0001)                 4.422737260813012E+05,      /* J = 19 */
(PID.TID 0000.0001)     2 @  4.444389881567502E+05,             /* J = 20: 21 */
(PID.TID 0000.0001)                 4.422737260813012E+05,      /* J = 22 */
(PID.TID 0000.0001)                 4.379537508695838E+05,      /* J = 23 */
(PID.TID 0000.0001)                 4.315001090065870E+05,      /* J = 24 */
(PID.TID 0000.0001)                 4.229442419867491E+05,      /* J = 25 */
(PID.TID 0000.0001)                 4.123278331341585E+05,      /* J = 26 */
(PID.TID 0000.0001)                 3.997026045255871E+05,      /* J = 27 */
(PID.TID 0000.0001)                 3.851300650057323E+05,      /* J = 28 */
(PID.TID 0000.0001)                 3.686812105223082E+05,      /* J = 29 */
(PID.TID 0000.0001)                 3.504361782409254E+05,      /* J = 30 */
(PID.TID 0000.0001)                 3.304838561248741E+05,      /* J = 31 */
(PID.TID 0000.0001)                 3.089214498819034E+05,      /* J = 32 */
(PID.TID 0000.0001)                 2.858540093877838E+05,      /* J = 33 */
(PID.TID 0000.0001)                 2.613939168938713E+05,      /* J = 34 */
(PID.TID 0000.0001)                 2.356603395120765E+05,      /* J = 35 */
(PID.TID 0000.0001)                 2.087786486446736E+05,      /* J = 36 */
(PID.TID 0000.0001)                 1.808798091874300E+05,      /* J = 37 */
(PID.TID 0000.0001)                 1.520997414818001E+05,      /* J = 38 */
(PID.TID 0000.0001)                 1.225786591246834E+05,      /* J = 39 */
(PID.TID 0000.0001)                 9.246038586187513E+04       /* J = 40 */
(PID.TID 0000.0001)     ;
(PID.TID 0000.0001) dyC =  /* dyC(:,1,:,1) ( m - cartesian, degrees - spherical ) */
(PID.TID 0000.0001)    90 @  4.447098934081552E+05              /* I =  1: 90 */
(PID.TID 0000.0001)     ;
(PID.TID 0000.0001) dyC =  /* dyC(1,:,1,:) ( m - cartesian, degrees - spherical ) */
(PID.TID 0000.0001)    40 @  4.447098934081552E+05              /* J =  1: 40 */
(PID.TID 0000.0001)     ;
(PID.TID 0000.0001) dxV =  /* dxV(:,1,:,1) ( m - cartesian, degrees - spherical ) */
(PID.TID 0000.0001)    90 @  7.722306258078101E+04              /* I =  1: 90 */
(PID.TID 0000.0001)     ;
(PID.TID 0000.0001) dxV =  /* dxV(1,:,1,:) ( m - cartesian, degrees - spherical ) */
(PID.TID 0000.0001)                 7.722306258078101E+04,      /* J =  1 */
(PID.TID 0000.0001)                 1.075850604052271E+05,      /* J =  2 */
(PID.TID 0000.0001)                 1.374229146297914E+05,      /* J =  3 */
(PID.TID 0000.0001)                 1.665912582279823E+05,      /* J =  4 */
(PID.TID 0000.0001)                 1.949479859617814E+05,      /* J =  5 */
(PID.TID 0000.0001)                 2.223549467040777E+05,      /* J =  6 */
(PID.TID 0000.0001)                 2.486786164970726E+05,      /* J =  7 */
(PID.TID 0000.0001)                 2.737907490675810E+05,      /* J =  8 */
(PID.TID 0000.0001)                 2.975690006299821E+05,      /* J =  9 */
(PID.TID 0000.0001)                 3.198975259328452E+05,      /* J = 10 */
(PID.TID 0000.0001)                 3.406675426453503E+05,      /* J = 11 */
(PID.TID 0000.0001)                 3.597778613338690E+05,      /* J = 12 */
(PID.TID 0000.0001)                 3.771353784467131E+05,      /* J = 13 */
(PID.TID 0000.0001)                 3.926555299052806E+05,      /* J = 14 */
(PID.TID 0000.0001)                 4.062627030917454E+05,      /* J = 15 */
(PID.TID 0000.0001)                 4.178906052261313E+05,      /* J = 16 */
(PID.TID 0000.0001)                 4.274825863380723E+05,      /* J = 17 */
(PID.TID 0000.0001)                 4.349919152597734E+05,      /* J = 18 */
(PID.TID 0000.0001)                 4.403820072955634E+05,      /* J = 19 */
(PID.TID 0000.0001)                 4.436266024588540E+05,      /* J = 20 */
(PID.TID 0000.0001)                 4.447098934081552E+05,      /* J = 21 */
(PID.TID 0000.0001)                 4.436266024588540E+05,      /* J = 22 */
(PID.TID 0000.0001)                 4.403820072955634E+05,      /* J = 23 */
(PID.TID 0000.0001)                 4.349919152597734E+05,      /* J = 24 */
(PID.TID 0000.0001)                 4.274825863380723E+05,      /* J = 25 */
(PID.TID 0000.0001)                 4.178906052261313E+05,      /* J = 26 */
(PID.TID 0000.0001)                 4.062627030917454E+05,      /* J = 27 */
(PID.TID 0000.0001)                 3.926555299052806E+05,      /* J = 28 */
(PID.TID 0000.0001)                 3.771353784467131E+05,      /* J = 29 */
(PID.TID 0000.0001)                 3.597778613338690E+05,      /* J = 30 */
(PID.TID 0000.0001)                 3.406675426453503E+05,      /* J = 31 */
(PID.TID 0000.0001)                 3.198975259328452E+05,      /* J = 32 */
(PID.TID 0000.0001)                 2.975690006299821E+05,      /* J = 33 */
(PID.TID 0000.0001)                 2.737907490675810E+05,      /* J = 34 */
(PID.TID 0000.0001)                 2.486786164970726E+05,      /* J = 35 */
(PID.TID 0000.0001)                 2.223549467040777E+05,      /* J = 36 */
(PID.TID 0000.0001)                 1.949479859617814E+05,      /* J = 37 */
(PID.TID 0000.0001)                 1.665912582279823E+05,      /* J = 38 */
(PID.TID 0000.0001)                 1.374229146297914E+05,      /* J = 39 */
(PID.TID 0000.0001)                 1.075850604052271E+05       /* J = 40 */
(PID.TID 0000.0001)     ;
(PID.TID 0000.0001) dyU =  /* dyU(:,1,:,1) ( m - cartesian, degrees - spherical ) */
(PID.TID 0000.0001)    90 @  4.447098934081552E+05              /* I =  1: 90 */
(PID.TID 0000.0001)     ;
(PID.TID 0000.0001) dyU =  /* dyU(1,:,1,:) ( m - cartesian, degrees - spherical ) */
(PID.TID 0000.0001)    40 @  4.447098934081552E+05              /* J =  1: 40 */
(PID.TID 0000.0001)     ;
(PID.TID 0000.0001) rA =  /* rA(:,1,:,1) ( m - cartesian, degrees - spherical ) */
(PID.TID 0000.0001)    90 @  4.110969866729047E+10              /* I =  1: 90 */
(PID.TID 0000.0001)     ;
(PID.TID 0000.0001) rA =  /* rA(1,:,1,:) ( m - cartesian, degrees - spherical ) */
(PID.TID 0000.0001)                 4.110969866729047E+10,      /* J =  1 */
(PID.TID 0000.0001)                 5.450087291636665E+10,      /* J =  2 */
(PID.TID 0000.0001)                 6.762652439100235E+10,      /* J =  3 */
(PID.TID 0000.0001)                 8.042270623659998E+10,      /* J =  4 */
(PID.TID 0000.0001)                 9.282707674147523E+10,      /* J =  5 */
(PID.TID 0000.0001)                 1.047792030594103E+11,      /* J =  6 */
(PID.TID 0000.0001)                 1.162208556324093E+11,      /* J =  7 */
(PID.TID 0000.0001)                 1.270962918792468E+11,      /* J =  8 */
(PID.TID 0000.0001)                 1.373525277677229E+11,      /* J =  9 */
(PID.TID 0000.0001)                 1.469395959475426E+11,      /* J = 10 */
(PID.TID 0000.0001)                 1.558107891862220E+11,      /* J = 11 */
(PID.TID 0000.0001)                 1.639228879220326E+11,      /* J = 12 */
(PID.TID 0000.0001)                 1.712363708253573E+11,      /* J = 13 */
(PID.TID 0000.0001)                 1.777156073426415E+11,      /* J = 14 */
(PID.TID 0000.0001)                 1.833290312848623E+11,      /* J = 15 */
(PID.TID 0000.0001)                 1.880492946148330E+11,      /* J = 16 */
(PID.TID 0000.0001)                 1.918534006840893E+11,      /* J = 17 */
(PID.TID 0000.0001)                 1.947228162702492E+11,      /* J = 18 */
(PID.TID 0000.0001)                 1.966435618690094E+11,      /* J = 19 */
(PID.TID 0000.0001)     2 @  1.976062798008856E+11,             /* J = 20: 21 */
(PID.TID 0000.0001)                 1.966435618690094E+11,      /* J = 22 */
(PID.TID 0000.0001)                 1.947228162702492E+11,      /* J = 23 */
(PID.TID 0000.0001)                 1.918534006840893E+11,      /* J = 24 */
(PID.TID 0000.0001)                 1.880492946148330E+11,      /* J = 25 */
(PID.TID 0000.0001)                 1.833290312848623E+11,      /* J = 26 */
(PID.TID 0000.0001)                 1.777156073426415E+11,      /* J = 27 */
(PID.TID 0000.0001)                 1.712363708253573E+11,      /* J = 28 */
(PID.TID 0000.0001)                 1.639228879220326E+11,      /* J = 29 */
(PID.TID 0000.0001)                 1.558107891862220E+11,      /* J = 30 */
(PID.TID 0000.0001)                 1.469395959475426E+11,      /* J = 31 */
(PID.TID 0000.0001)                 1.373525277677229E+11,      /* J = 32 */
(PID.TID 0000.0001)                 1.270962918792468E+11,      /* J = 33 */
(PID.TID 0000.0001)                 1.162208556324093E+11,      /* J = 34 */
(PID.TID 0000.0001)                 1.047792030594103E+11,      /* J = 35 */
(PID.TID 0000.0001)                 9.282707674147523E+10,      /* J = 36 */
(PID.TID 0000.0001)                 8.042270623659998E+10,      /* J = 37 */
(PID.TID 0000.0001)                 6.762652439100235E+10,      /* J = 38 */
(PID.TID 0000.0001)                 5.450087291636665E+10,      /* J = 39 */
(PID.TID 0000.0001)                 4.110969866729047E+10       /* J = 40 */
(PID.TID 0000.0001)     ;
(PID.TID 0000.0001) rAw =  /* rAw(:,1,:,1) ( m - cartesian, degrees - spherical ) */
(PID.TID 0000.0001)    90 @  4.110969866729047E+10              /* I =  1: 90 */
(PID.TID 0000.0001)     ;
(PID.TID 0000.0001) rAw =  /* rAw(1,:,1,:) ( m - cartesian, degrees - spherical ) */
(PID.TID 0000.0001)                 4.110969866729047E+10,      /* J =  1 */
(PID.TID 0000.0001)                 5.450087291636665E+10,      /* J =  2 */
(PID.TID 0000.0001)                 6.762652439100235E+10,      /* J =  3 */
(PID.TID 0000.0001)                 8.042270623659998E+10,      /* J =  4 */
(PID.TID 0000.0001)                 9.282707674147523E+10,      /* J =  5 */
(PID.TID 0000.0001)                 1.047792030594103E+11,      /* J =  6 */
(PID.TID 0000.0001)                 1.162208556324093E+11,      /* J =  7 */
(PID.TID 0000.0001)                 1.270962918792468E+11,      /* J =  8 */
(PID.TID 0000.0001)                 1.373525277677229E+11,      /* J =  9 */
(PID.TID 0000.0001)                 1.469395959475426E+11,      /* J = 10 */
(PID.TID 0000.0001)                 1.558107891862220E+11,      /* J = 11 */
(PID.TID 0000.0001)                 1.639228879220326E+11,      /* J = 12 */
(PID.TID 0000.0001)                 1.712363708253573E+11,      /* J = 13 */
(PID.TID 0000.0001)                 1.777156073426415E+11,      /* J = 14 */
(PID.TID 0000.0001)                 1.833290312848623E+11,      /* J = 15 */
(PID.TID 0000.0001)                 1.880492946148330E+11,      /* J = 16 */
(PID.TID 0000.0001)                 1.918534006840893E+11,      /* J = 17 */
(PID.TID 0000.0001)                 1.947228162702492E+11,      /* J = 18 */
(PID.TID 0000.0001)                 1.966435618690094E+11,      /* J = 19 */
(PID.TID 0000.0001)     2 @  1.976062798008856E+11,             /* J = 20: 21 */
(PID.TID 0000.0001)                 1.966435618690094E+11,      /* J = 22 */
(PID.TID 0000.0001)                 1.947228162702492E+11,      /* J = 23 */
(PID.TID 0000.0001)                 1.918534006840893E+11,      /* J = 24 */
(PID.TID 0000.0001)                 1.880492946148330E+11,      /* J = 25 */
(PID.TID 0000.0001)                 1.833290312848623E+11,      /* J = 26 */
(PID.TID 0000.0001)                 1.777156073426415E+11,      /* J = 27 */
(PID.TID 0000.0001)                 1.712363708253573E+11,      /* J = 28 */
(PID.TID 0000.0001)                 1.639228879220326E+11,      /* J = 29 */
(PID.TID 0000.0001)                 1.558107891862220E+11,      /* J = 30 */
(PID.TID 0000.0001)                 1.469395959475426E+11,      /* J = 31 */
(PID.TID 0000.0001)                 1.373525277677229E+11,      /* J = 32 */
(PID.TID 0000.0001)                 1.270962918792468E+11,      /* J = 33 */
(PID.TID 0000.0001)                 1.162208556324093E+11,      /* J = 34 */
(PID.TID 0000.0001)                 1.047792030594103E+11,      /* J = 35 */
(PID.TID 0000.0001)                 9.282707674147523E+10,      /* J = 36 */
(PID.TID 0000.0001)                 8.042270623659998E+10,      /* J = 37 */
(PID.TID 0000.0001)                 6.762652439100235E+10,      /* J = 38 */
(PID.TID 0000.0001)                 5.450087291636665E+10,      /* J = 39 */
(PID.TID 0000.0001)                 4.110969866729047E+10       /* J = 40 */
(PID.TID 0000.0001)     ;
(PID.TID 0000.0001) rAs =  /* rAs(:,1,:,1) ( m - cartesian, degrees - spherical ) */
(PID.TID 0000.0001)    90 @  3.433488626798250E+10              /* I =  1: 90 */
(PID.TID 0000.0001)     ;
(PID.TID 0000.0001) rAs =  /* rAs(1,:,1,:) ( m - cartesian, degrees - spherical ) */
(PID.TID 0000.0001)                 3.433488626798250E+10,      /* J =  1 */
(PID.TID 0000.0001)                 4.783442523123625E+10,      /* J =  2 */
(PID.TID 0000.0001)                 6.110091968306414E+10,      /* J =  3 */
(PID.TID 0000.0001)                 7.406973659603818E+10,      /* J =  4 */
(PID.TID 0000.0001)                 8.667769319778079E+10,      /* J =  5 */
(PID.TID 0000.0001)                 9.886336479107463E+10,      /* J =  6 */
(PID.TID 0000.0001)                 1.105673840088173E+11,      /* J =  7 */
(PID.TID 0000.0001)                 1.217327300458638E+11,      /* J =  8 */
(PID.TID 0000.0001)                 1.323050064586578E+11,      /* J =  9 */
(PID.TID 0000.0001)                 1.422327061792377E+11,      /* J = 10 */
(PID.TID 0000.0001)                 1.514674624524945E+11,      /* J = 11 */
(PID.TID 0000.0001)                 1.599642844741385E+11,      /* J = 12 */
(PID.TID 0000.0001)                 1.676817765813788E+11,      /* J = 13 */
(PID.TID 0000.0001)                 1.745823399284268E+11,      /* J = 14 */
(PID.TID 0000.0001)                 1.806323556642996E+11,      /* J = 15 */
(PID.TID 0000.0001)                 1.858023487204767E+11,      /* J = 16 */
(PID.TID 0000.0001)                 1.900671314104743E+11,      /* J = 17 */
(PID.TID 0000.0001)                 1.934059261417216E+11,      /* J = 18 */
(PID.TID 0000.0001)                 1.958024666419019E+11,      /* J = 19 */
(PID.TID 0000.0001)                 1.972450772065981E+11,      /* J = 20 */
(PID.TID 0000.0001)                 1.977267295821495E+11,      /* J = 21 */
(PID.TID 0000.0001)                 1.972450772065981E+11,      /* J = 22 */
(PID.TID 0000.0001)                 1.958024666419019E+11,      /* J = 23 */
(PID.TID 0000.0001)                 1.934059261417216E+11,      /* J = 24 */
(PID.TID 0000.0001)                 1.900671314104743E+11,      /* J = 25 */
(PID.TID 0000.0001)                 1.858023487204767E+11,      /* J = 26 */
(PID.TID 0000.0001)                 1.806323556642996E+11,      /* J = 27 */
(PID.TID 0000.0001)                 1.745823399284268E+11,      /* J = 28 */
(PID.TID 0000.0001)                 1.676817765813788E+11,      /* J = 29 */
(PID.TID 0000.0001)                 1.599642844741385E+11,      /* J = 30 */
(PID.TID 0000.0001)                 1.514674624524945E+11,      /* J = 31 */
(PID.TID 0000.0001)                 1.422327061792377E+11,      /* J = 32 */
(PID.TID 0000.0001)                 1.323050064586578E+11,      /* J = 33 */
(PID.TID 0000.0001)                 1.217327300458638E+11,      /* J = 34 */
(PID.TID 0000.0001)                 1.105673840088173E+11,      /* J = 35 */
(PID.TID 0000.0001)                 9.886336479107463E+10,      /* J = 36 */
(PID.TID 0000.0001)                 8.667769319778079E+10,      /* J = 37 */
(PID.TID 0000.0001)                 7.406973659603818E+10,      /* J = 38 */
(PID.TID 0000.0001)                 6.110091968306414E+10,      /* J = 39 */
(PID.TID 0000.0001)                 4.783442523123625E+10       /* J = 40 */
(PID.TID 0000.0001)     ;
(PID.TID 0000.0001) 
(PID.TID 0000.0001)  MDSREADFIELD: opening global file: lev_t.bin
(PID.TID 0000.0001) // =======================================================
(PID.TID 0000.0001) // Field Initial Temperature at iteration          1
(PID.TID 0000.0001) // CMIN =         -8.538625820175458E-01
(PID.TID 0000.0001) // CMAX =          2.012045717433744E+00
(PID.TID 0000.0001) // CINT =          1.061447518315292E-01
(PID.TID 0000.0001) // SYMBOLS (CMIN->CMAX): -abcdefghijklmnopqrstuvwxyz+
(PID.TID 0000.0001) //                  0.0: .
(PID.TID 0000.0001) // RANGE I (Lo:Hi:Step):(   1:  90:   1)
(PID.TID 0000.0001) // RANGE J (Lo:Hi:Step):(  40:   1:  -1)
(PID.TID 0000.0001) // RANGE K (Lo:Hi:Step):(   1:   1:   1)
(PID.TID 0000.0001) // =======================================================
(PID.TID 0000.0001) K =   1
(PID.TID 0000.0001)                I=10      I=20      I=30      I=40      I=50      I=60      I=70      I=80      I=90
(PID.TID 0000.0001) |--J--|123456789|123456789|123456789|123456789|123456789|123456789|123456789|123456789|123456789|
(PID.TID 0000.0001)     40 ..........................................................................................
(PID.TID 0000.0001)     39 ..........................................................................................
(PID.TID 0000.0001)     38 ..........................................................................................
(PID.TID 0000.0001)     37 ..........................................................................................
(PID.TID 0000.0001)     36 ..........................................................................................
(PID.TID 0000.0001)     35 ..........................................................................................
(PID.TID 0000.0001)     34 ..........................................................................................
(PID.TID 0000.0001)     33 .......................................rrr.rrrrrrsss......................................
(PID.TID 0000.0001)     32 ......................................rrrr.rrrrssssss.....................................
(PID.TID 0000.0001)     31 ....................................rrrrrr.rrrrssssss......................yy.............
(PID.TID 0000.0001)     30 ....................................rrrr.rr.rrsssssssssss................yyyy.............
(PID.TID 0000.0001)     29 ...................................rrrr.rrr...rssrsrrssss...............yy.yyy.....++.....
(PID.TID 0000.0001)     28 ...................................rrrrrrrrrrrrrrrrrrr..................yyyxxx.....++.....
(PID.TID 0000.0001)     27 .....................................rrrrrrrr.r...rrr...................yyxxxx..zzzz+.....
(PID.TID 0000.0001)     26 ...............................tss..rrrrrrrrrrr....rrrrrr...............yyyxxx..zzzz......
(PID.TID 0000.0001)     25 ...............................stt..rrr..rq.....qrrrrqqqq.................www...zz........
(PID.TID 0000.0001)     24 ...............................tt...rrrrrqqqqqqqqqqqqqq.........................zzzz......
(PID.TID 0000.0001)     23 ....................................rrrr...qqqqq.qrrqrr.........................yzzz......
(PID.TID 0000.0001)     22 ...........................................qppppp..r.rr...................................
(PID.TID 0000.0001)     21 ...........................................pppppp.......................................yz
(PID.TID 0000.0001)     20 ............................................ppppppp...............................llp...zz
(PID.TID 0000.0001)     19 zz................qqq.......................pppp.pppp.............................lll.....
(PID.TID 0000.0001)     18 zz................qqq....oo.o.....................qpq.............................lll....z
(PID.TID 0000.0001)     17 zz................qqq.ooooooo.....................qp..............................lll....z
(PID.TID 0000.0001)     16 ++.................qq.oooooo...................nno................................llm....+
(PID.TID 0000.0001)     15 +......................noooo..................nnno................................llm....+
(PID.TID 0000.0001)     14 +...........nnn........nn.o...................nnnooo..............................mmm....+
(PID.TID 0000.0001)     13 .oo.........nnn...........oo..................nnnnnnoo....................................
(PID.TID 0000.0001)     12 nmm.......................nn..mmm.............ooooooooo...................................
(PID.TID 0000.0001)     11 oon.ll........ii...........mmmmmmmm...........n.noooooooo....................ggfgg........
(PID.TID 0000.0001)     10 on..l.hi......ii..............lmmmm.............mnnoooooo...................hhgggg........
(PID.TID 0000.0001)      9 .....ggg......................................nmmmmnnnnnn...................hhgggg........
(PID.TID 0000.0001)      8 .....fe......................................mmmmmm............................ff.........
(PID.TID 0000.0001)      7 .......bb...cc.............................llmmmm.................iii.....................
(PID.TID 0000.0001)      6 -aaaaabbbbbbccc............................lllm.............hhi.i.iii....................-
(PID.TID 0000.0001)      5 ---aaaaaaaaabbb...........................................hhhhhhhh.h.................-----
(PID.TID 0000.0001)      4 ..-aaaaa..................................................hhhhhhh....................----a
(PID.TID 0000.0001)      3 ..........................................................................................
(PID.TID 0000.0001)      2 ..........................................................................................
(PID.TID 0000.0001)      1 ..........................................................................................
(PID.TID 0000.0001) // =======================================================
(PID.TID 0000.0001) // END OF FIELD                                          =
(PID.TID 0000.0001) // =======================================================
(PID.TID 0000.0001) 
(PID.TID 0000.0001)  MDSREADFIELD: opening global file: lev_s.bin
(PID.TID 0000.0001) // =======================================================
(PID.TID 0000.0001) // Field Initial Salinity at iteration          1
(PID.TID 0000.0001) // CMIN =          3.464784170881562E+01
(PID.TID 0000.0001) // CMAX =          3.490372370636981E+01
(PID.TID 0000.0001) // CINT =          9.477111020525586E-03
(PID.TID 0000.0001) // SYMBOLS (CMIN->CMAX): -abcdefghijklmnopqrstuvwxyz+
(PID.TID 0000.0001) //                  0.0: .
(PID.TID 0000.0001) // RANGE I (Lo:Hi:Step):(   1:  90:   1)
(PID.TID 0000.0001) // RANGE J (Lo:Hi:Step):(  40:   1:  -1)
(PID.TID 0000.0001) // RANGE K (Lo:Hi:Step):(   1:   1:   1)
(PID.TID 0000.0001) // =======================================================
(PID.TID 0000.0001) K =   1
(PID.TID 0000.0001)                I=10      I=20      I=30      I=40      I=50      I=60      I=70      I=80      I=90
(PID.TID 0000.0001) |--J--|123456789|123456789|123456789|123456789|123456789|123456789|123456789|123456789|123456789|
(PID.TID 0000.0001)     40 ..........................................................................................
(PID.TID 0000.0001)     39 ..........................................................................................
(PID.TID 0000.0001)     38 ..........................................................................................
(PID.TID 0000.0001)     37 ..........................................................................................
(PID.TID 0000.0001)     36 ..........................................................................................
(PID.TID 0000.0001)     35 ..........................................................................................
(PID.TID 0000.0001)     34 ..........................................................................................
(PID.TID 0000.0001)     33 .......................................ddd.ddeeeeddd......................................
(PID.TID 0000.0001)     32 ......................................dddd.dddddddddd.....................................
(PID.TID 0000.0001)     31 ....................................edddde.eeedddddde......................+z.............
(PID.TID 0000.0001)     30 ....................................eefe.ee.eddddddddddee................+++z.............
(PID.TID 0000.0001)     29 ...................................ddee.dee...dddddeddddd...............++.zyy.....yz.....
(PID.TID 0000.0001)     28 ...................................cceebdeeeeeeddddded..................zzzyxx.....zz.....
(PID.TID 0000.0001)     27 .....................................deddeedd.e...dde...................zyyxxx..zzyzz.....
(PID.TID 0000.0001)     26 ...............................ddd..feeeeeeedef....eeeeee...............yzywww..z+zz......
(PID.TID 0000.0001)     25 ...............................ddc..edd..fe.....eeffffeee.................wwv...++........
(PID.TID 0000.0001)     24 ...............................dd...ddeffffeffefeeffeee.........................yyyz......
(PID.TID 0000.0001)     23 ....................................eded...effff.dffeee.........................yyzz......
(PID.TID 0000.0001)     22 ...........................................efffff..e.ee...................................
(PID.TID 0000.0001)     21 ...........................................fffgff.......................................yx
(PID.TID 0000.0001)     20 ............................................fghgffg...............................hin...xx
(PID.TID 0000.0001)     19 xy................ggf.......................fggg.ffff.............................iii.....
(PID.TID 0000.0001)     18 yy................cdd....gh.h.....................fff.............................ihh....y
(PID.TID 0000.0001)     17 yy................ddf.gggghhh.....................ff..............................ijj....y
(PID.TID 0000.0001)     16 yy.................fh.gggggi...................gff................................hii....y
(PID.TID 0000.0001)     15 y......................fgggh..................gggg................................gii....y
(PID.TID 0000.0001)     14 y...........ggg........gg.g...................gggggg..............................ijj....y
(PID.TID 0000.0001)     13 .ii.........ggg...........gg..................gggggfgg....................................
(PID.TID 0000.0001)     12 hhh.......................gg..ggg.............gggggfggg...................................
(PID.TID 0000.0001)     11 ggg.gf........dd...........hggggggg...........f.fggffffgg....................ccbcc........
(PID.TID 0000.0001)     10 gg..f.de......dd..............hgggg.............gfgggfggg...................edcccb........
(PID.TID 0000.0001)      9 .....ccd......................................fffffgggffg...................ccccbb........
(PID.TID 0000.0001)      8 .....cc......................................ffffff............................bb.........
(PID.TID 0000.0001)      7 .......bb...bb.............................efffff.................fff.....................
(PID.TID 0000.0001)      6 ---aaaaaaaabbbb............................efff.............fff.f.fff....................-
(PID.TID 0000.0001)      5 ---aaabaaaaaaaa...........................................ffgfffgf.f.................-----
(PID.TID 0000.0001)      4 ..-aabba..................................................fffffff....................-----
(PID.TID 0000.0001)      3 ..........................................................................................
(PID.TID 0000.0001)      2 ..........................................................................................
(PID.TID 0000.0001)      1 ..........................................................................................
(PID.TID 0000.0001) // =======================================================
(PID.TID 0000.0001) // END OF FIELD                                          =
(PID.TID 0000.0001) // =======================================================
(PID.TID 0000.0001) 
(PID.TID 0000.0001) Start initial hydrostatic pressure computation
(PID.TID 0000.0001) Pressure is predetermined for buoyancyRelation OCEANICP
(PID.TID 0000.0001) 
(PID.TID 0000.0001)  MDSREADFIELD: opening global file: trenberth_taux.bin
(PID.TID 0000.0001)  MDSREADFIELD: opening global file: trenberth_tauy.bin
(PID.TID 0000.0001)  MDSREADFIELD: opening global file: shi_qnet.bin
(PID.TID 0000.0001)  MDSREADFIELD: opening global file: shi_empmr.bin
(PID.TID 0000.0001)  MDSREADFIELD: opening global file: lev_sst.bin
(PID.TID 0000.0001)  MDSREADFIELD: opening global file: deltageopotjmd95.bin
(PID.TID 0000.0001) // =======================================================
(PID.TID 0000.0001) // Model current state
(PID.TID 0000.0001) // =======================================================
(PID.TID 0000.0001) 
(PID.TID 0000.0001) // =======================================================
(PID.TID 0000.0001) // Begin MONITOR dynamic field statistics
(PID.TID 0000.0001) // =======================================================
(PID.TID 0000.0001) %MON time_tsnumber                =                     0
(PID.TID 0000.0001) %MON time_secondsf                =   0.0000000000000E+00
(PID.TID 0000.0001) %MON dynstat_eta_max              =   0.0000000000000E+00
(PID.TID 0000.0001) %MON dynstat_eta_min              =   0.0000000000000E+00
(PID.TID 0000.0001) %MON dynstat_eta_mean             =   0.0000000000000E+00
(PID.TID 0000.0001) %MON dynstat_eta_sd               =   0.0000000000000E+00
(PID.TID 0000.0001) %MON dynstat_eta_del2             =   0.0000000000000E+00
(PID.TID 0000.0001) %MON dynstat_uvel_max             =   0.0000000000000E+00
(PID.TID 0000.0001) %MON dynstat_uvel_min             =   0.0000000000000E+00
(PID.TID 0000.0001) %MON dynstat_uvel_mean            =   0.0000000000000E+00
(PID.TID 0000.0001) %MON dynstat_uvel_sd              =   0.0000000000000E+00
(PID.TID 0000.0001) %MON dynstat_uvel_del2            =   0.0000000000000E+00
(PID.TID 0000.0001) %MON dynstat_vvel_max             =   0.0000000000000E+00
(PID.TID 0000.0001) %MON dynstat_vvel_min             =   0.0000000000000E+00
(PID.TID 0000.0001) %MON dynstat_vvel_mean            =   0.0000000000000E+00
(PID.TID 0000.0001) %MON dynstat_vvel_sd              =   0.0000000000000E+00
(PID.TID 0000.0001) %MON dynstat_vvel_del2            =   0.0000000000000E+00
(PID.TID 0000.0001) %MON dynstat_wvel_max             =   0.0000000000000E+00
(PID.TID 0000.0001) %MON dynstat_wvel_min             =   0.0000000000000E+00
(PID.TID 0000.0001) %MON dynstat_wvel_mean            =   0.0000000000000E+00
(PID.TID 0000.0001) %MON dynstat_wvel_sd              =   0.0000000000000E+00
(PID.TID 0000.0001) %MON dynstat_wvel_del2            =   0.0000000000000E+00
(PID.TID 0000.0001) %MON dynstat_theta_max            =   2.9733511003948E+01
(PID.TID 0000.0001) %MON dynstat_theta_min            =  -2.6263839329562E+00
(PID.TID 0000.0001) %MON dynstat_theta_mean           =   3.6018664655656E+00
(PID.TID 0000.0001) %MON dynstat_theta_sd             =   4.4018845380981E+00
(PID.TID 0000.0001) %MON dynstat_theta_del2           =   1.5429255071065E-01
(PID.TID 0000.0001) %MON dynstat_salt_max             =   3.7475629659304E+01
(PID.TID 0000.0001) %MON dynstat_salt_min             =   2.9752769471420E+01
(PID.TID 0000.0001) %MON dynstat_salt_mean            =   3.4718001015839E+01
(PID.TID 0000.0001) %MON dynstat_salt_sd              =   2.9462524950605E-01
(PID.TID 0000.0001) %MON dynstat_salt_del2            =   2.6846692931047E-02
(PID.TID 0000.0001) %MON advcfl_uvel_max              =   0.0000000000000E+00
(PID.TID 0000.0001) %MON advcfl_vvel_max              =   0.0000000000000E+00
(PID.TID 0000.0001) %MON advcfl_wvel_max              =   0.0000000000000E+00
(PID.TID 0000.0001) %MON advcfl_W_hf_max              =   0.0000000000000E+00
(PID.TID 0000.0001) %MON pe_b_mean                    =   0.0000000000000E+00
(PID.TID 0000.0001) %MON ke_max                       =   0.0000000000000E+00
(PID.TID 0000.0001) %MON ke_mean                      =   0.0000000000000E+00
(PID.TID 0000.0001) %MON ke_vol                       =   1.3442141716554E+22
(PID.TID 0000.0001) %MON vort_r_min                   =   0.0000000000000E+00
(PID.TID 0000.0001) %MON vort_r_max                   =   0.0000000000000E+00
(PID.TID 0000.0001) %MON vort_a_mean                  =  -2.4531015880775E-05
(PID.TID 0000.0001) %MON vort_a_sd                    =   7.3436042941020E-05
(PID.TID 0000.0001) %MON vort_p_mean                  =  -2.9390264918859E-05
(PID.TID 0000.0001) %MON vort_p_sd                    =   1.0331963168452E-04
(PID.TID 0000.0001) %MON surfExpan_theta_mean         =   0.0000000000000E+00
(PID.TID 0000.0001) %MON surfExpan_salt_mean          =   0.0000000000000E+00
(PID.TID 0000.0001) // =======================================================
(PID.TID 0000.0001) // End MONITOR dynamic field statistics
(PID.TID 0000.0001) // =======================================================
S/R EXTERNAL_FIELDS_LOAD: Reading new data:   12    1         0  0.000000000000E+00
(PID.TID 0000.0001)  MDSREADFIELD: opening global file: trenberth_taux.bin
(PID.TID 0000.0001)  MDSREADFIELD: opening global file: trenberth_taux.bin
(PID.TID 0000.0001)  MDSREADFIELD: opening global file: trenberth_tauy.bin
(PID.TID 0000.0001)  MDSREADFIELD: opening global file: trenberth_tauy.bin
(PID.TID 0000.0001)  MDSREADFIELD: opening global file: shi_qnet.bin
(PID.TID 0000.0001)  MDSREADFIELD: opening global file: shi_qnet.bin
(PID.TID 0000.0001)  MDSREADFIELD: opening global file: shi_empmr.bin
(PID.TID 0000.0001)  MDSREADFIELD: opening global file: shi_empmr.bin
(PID.TID 0000.0001)  MDSREADFIELD: opening global file: lev_sst.bin
(PID.TID 0000.0001)  MDSREADFIELD: opening global file: lev_sst.bin
(PID.TID 0000.0001)  MDSREADFIELD: opening global file: deltageopotjmd95.bin
(PID.TID 0000.0001)  MDSREADFIELD: opening global file: deltageopotjmd95.bin
time,SST,SSS,fu,fv,Q,E-P,i0,i1,a,b =   0.0000E+00  2.4948E+01  0.0000E+00 -1.0804E-02  2.9462E-02 -8.6505E+01 -5.1109E-09    12     1  5.3333E-01  4.6667E-01
time,fu0,fu1,fu =   0.0000E+00 -1.3840E-02 -8.1474E-03 -1.0804E-02  5.333333333333333E-01  4.666666666666667E-01
 cg2d: Sum(rhs),rhsMax =  -2.05391259555654E-15  1.71163425510702E+02
(PID.TID 0000.0001)                    cg2d_init_res =    9.36692322438535E+00
(PID.TID 0000.0001)                       cg2d_iters =   107
(PID.TID 0000.0001)                         cg2d_res =    9.63027430221289E-10
(PID.TID 0000.0001) // =======================================================
(PID.TID 0000.0001) // Begin MONITOR dynamic field statistics
(PID.TID 0000.0001) // =======================================================
(PID.TID 0000.0001) %MON time_tsnumber                =                     1
(PID.TID 0000.0001) %MON time_secondsf                =   1.7280000000000E+05
(PID.TID 0000.0001) %MON dynstat_eta_max              =   4.1657054247863E+04
(PID.TID 0000.0001) %MON dynstat_eta_min              =  -8.8276366926488E+04
(PID.TID 0000.0001) %MON dynstat_eta_mean             =  -1.2066616639904E-12
(PID.TID 0000.0001) %MON dynstat_eta_sd               =   3.6901404654730E+04
(PID.TID 0000.0001) %MON dynstat_eta_del2             =   2.3562066746139E+04
(PID.TID 0000.0001) %MON dynstat_uvel_max             =   3.5125570520589E-02
(PID.TID 0000.0001) %MON dynstat_uvel_min             =  -3.5357333914090E-02
(PID.TID 0000.0001) %MON dynstat_uvel_mean            =  -8.4137015636217E-04
(PID.TID 0000.0001) %MON dynstat_uvel_sd              =   2.2142796997946E-03
(PID.TID 0000.0001) %MON dynstat_uvel_del2            =   7.7406181280616E-04
(PID.TID 0000.0001) %MON dynstat_vvel_max             =   3.5007899096566E-02
(PID.TID 0000.0001) %MON dynstat_vvel_min             =  -2.4495986172965E-02
(PID.TID 0000.0001) %MON dynstat_vvel_mean            =   1.0871904643115E-03
(PID.TID 0000.0001) %MON dynstat_vvel_sd              =   2.2888120494056E-03
(PID.TID 0000.0001) %MON dynstat_vvel_del2            =   7.6102694666394E-04
(PID.TID 0000.0001) %MON dynstat_wvel_max             =   5.0250209032202E-01
(PID.TID 0000.0001) %MON dynstat_wvel_min             =  -6.2689411258262E-01
(PID.TID 0000.0001) %MON dynstat_wvel_mean            =  -6.6717820356569E-03
(PID.TID 0000.0001) %MON dynstat_wvel_sd              =   1.5353629408820E-01
(PID.TID 0000.0001) %MON dynstat_wvel_del2            =   6.1610655097651E-02
(PID.TID 0000.0001) %MON dynstat_theta_max            =   2.9713265304180E+01
(PID.TID 0000.0001) %MON dynstat_theta_min            =  -2.6183664565810E+00
(PID.TID 0000.0001) %MON dynstat_theta_mean           =   3.6019910573993E+00
(PID.TID 0000.0001) %MON dynstat_theta_sd             =   4.4015315967486E+00
(PID.TID 0000.0001) %MON dynstat_theta_del2           =   1.5479567598383E-01
(PID.TID 0000.0001) %MON dynstat_salt_max             =   3.7478618521905E+01
(PID.TID 0000.0001) %MON dynstat_salt_min             =   2.9762213911218E+01
(PID.TID 0000.0001) %MON dynstat_salt_mean            =   3.4718001015839E+01
(PID.TID 0000.0001) %MON dynstat_salt_sd              =   2.9451022507208E-01
(PID.TID 0000.0001) %MON dynstat_salt_del2            =   2.6959492538962E-02
(PID.TID 0000.0001) %MON advcfl_uvel_max              =   2.1969108758924E-02
(PID.TID 0000.0001) %MON advcfl_vvel_max              =   1.3602946670526E-02
(PID.TID 0000.0001) %MON advcfl_wvel_max              =   4.1333496051732E-02
(PID.TID 0000.0001) %MON advcfl_W_hf_max              =   4.1333496051731E-02
(PID.TID 0000.0001) %MON pe_b_mean                    =  -6.4368928338366E-03
(PID.TID 0000.0001) %MON ke_max                       =   5.7558563512406E-04
(PID.TID 0000.0001) %MON ke_mean                      =   5.4208973968005E-06
(PID.TID 0000.0001) %MON ke_vol                       =   1.3442141716554E+22
(PID.TID 0000.0001) %MON vort_r_min                   =  -1.1938183909510E-07
(PID.TID 0000.0001) %MON vort_r_max                   =   1.5594949449135E-07
(PID.TID 0000.0001) %MON vort_a_mean                  =  -2.4531015891593E-05
(PID.TID 0000.0001) %MON vort_a_sd                    =   7.3435845880135E-05
(PID.TID 0000.0001) %MON vort_p_mean                  =  -2.9390264931819E-05
(PID.TID 0000.0001) %MON vort_p_sd                    =   1.0331909362915E-04
(PID.TID 0000.0001) %MON surfExpan_theta_mean         =   6.7339828297793E-02
(PID.TID 0000.0001) %MON surfExpan_salt_mean          =  -2.2621691900054E-04
(PID.TID 0000.0001) // =======================================================
(PID.TID 0000.0001) // End MONITOR dynamic field statistics
(PID.TID 0000.0001) // =======================================================
time,SST,SSS,fu,fv,Q,E-P,i0,i1,a,b =   1.7280E+05  2.5087E+01  0.0000E+00 -1.0425E-02  2.8680E-02 -8.7292E+01 -5.1109E-09    12     1  6.0000E-01  4.0000E-01
time,fu0,fu1,fu =   1.7280E+05 -1.3840E-02 -8.1474E-03 -1.0425E-02  6.000000000000000E-01  4.000000000000000E-01
 cg2d: Sum(rhs),rhsMax =  -6.66133814775094E-16  1.74491050128407E+02
(PID.TID 0000.0001)                    cg2d_init_res =    2.47708251814520E-01
(PID.TID 0000.0001)                       cg2d_iters =   100
(PID.TID 0000.0001)                         cg2d_res =    8.69463897328784E-10
(PID.TID 0000.0001) // =======================================================
(PID.TID 0000.0001) // Begin MONITOR dynamic field statistics
(PID.TID 0000.0001) // =======================================================
(PID.TID 0000.0001) %MON time_tsnumber                =                     2
(PID.TID 0000.0001) %MON time_secondsf                =   3.4560000000000E+05
(PID.TID 0000.0001) %MON dynstat_eta_max              =   4.8800885451682E+04
(PID.TID 0000.0001) %MON dynstat_eta_min              =  -8.9519103267936E+04
(PID.TID 0000.0001) %MON dynstat_eta_mean             =   1.0969651490822E-12
(PID.TID 0000.0001) %MON dynstat_eta_sd               =   3.9643958942461E+04
(PID.TID 0000.0001) %MON dynstat_eta_del2             =   2.4287467782550E+04
(PID.TID 0000.0001) %MON dynstat_uvel_max             =   6.3634001837210E-02
(PID.TID 0000.0001) %MON dynstat_uvel_min             =  -4.0770290811278E-02
(PID.TID 0000.0001) %MON dynstat_uvel_mean            =  -1.1816096659137E-03
(PID.TID 0000.0001) %MON dynstat_uvel_sd              =   2.2777904989430E-03
(PID.TID 0000.0001) %MON dynstat_uvel_del2            =   8.3222277279295E-04
(PID.TID 0000.0001) %MON dynstat_vvel_max             =   5.2234906396762E-02
(PID.TID 0000.0001) %MON dynstat_vvel_min             =  -3.0675599149302E-02
(PID.TID 0000.0001) %MON dynstat_vvel_mean            =   1.5483551430092E-03
(PID.TID 0000.0001) %MON dynstat_vvel_sd              =   2.9966033014778E-03
(PID.TID 0000.0001) %MON dynstat_vvel_del2            =   9.0390612271294E-04
(PID.TID 0000.0001) %MON dynstat_wvel_max             =   6.3728869166149E-01
(PID.TID 0000.0001) %MON dynstat_wvel_min             =  -7.8830947903474E-01
(PID.TID 0000.0001) %MON dynstat_wvel_mean            =  -3.3033109002126E-03
(PID.TID 0000.0001) %MON dynstat_wvel_sd              =   8.9420018279279E-02
(PID.TID 0000.0001) %MON dynstat_wvel_del2            =   4.6781531729726E-02
(PID.TID 0000.0001) %MON dynstat_theta_max            =   2.9688317804809E+01
(PID.TID 0000.0001) %MON dynstat_theta_min            =  -2.6127583275514E+00
(PID.TID 0000.0001) %MON dynstat_theta_mean           =   3.6019450094693E+00
(PID.TID 0000.0001) %MON dynstat_theta_sd             =   4.4012662195726E+00
(PID.TID 0000.0001) %MON dynstat_theta_del2           =   1.5406689412191E-01
(PID.TID 0000.0001) %MON dynstat_salt_max             =   3.7481694673917E+01
(PID.TID 0000.0001) %MON dynstat_salt_min             =   2.9765580138603E+01
(PID.TID 0000.0001) %MON dynstat_salt_mean            =   3.4718001573786E+01
(PID.TID 0000.0001) %MON dynstat_salt_sd              =   2.9441685784094E-01
(PID.TID 0000.0001) %MON dynstat_salt_del2            =   2.7040206810268E-02
(PID.TID 0000.0001) %MON advcfl_uvel_max              =   3.3744380940884E-02
(PID.TID 0000.0001) %MON advcfl_vvel_max              =   2.0296809131422E-02
(PID.TID 0000.0001) %MON advcfl_wvel_max              =   5.3361533856158E-02
(PID.TID 0000.0001) %MON advcfl_W_hf_max              =   5.3361533856158E-02
(PID.TID 0000.0001) %MON pe_b_mean                    =  -7.1800599538241E-03
(PID.TID 0000.0001) %MON ke_max                       =   1.7108386072513E-03
(PID.TID 0000.0001) %MON ke_mean                      =   8.0817914725128E-06
(PID.TID 0000.0001) %MON ke_vol                       =   1.3442141716554E+22
(PID.TID 0000.0001) %MON vort_r_min                   =  -1.7583665387325E-07
(PID.TID 0000.0001) %MON vort_r_max                   =   1.8567060982646E-07
(PID.TID 0000.0001) %MON vort_a_mean                  =  -2.4531016005854E-05
(PID.TID 0000.0001) %MON vort_a_sd                    =   7.3435759247919E-05
(PID.TID 0000.0001) %MON vort_p_mean                  =  -2.9399877548461E-05
(PID.TID 0000.0001) %MON vort_p_sd                    =   1.0336783838992E-04
(PID.TID 0000.0001) %MON surfExpan_theta_mean         =   3.6681744603647E-02
(PID.TID 0000.0001) %MON surfExpan_salt_mean          =  -9.6950610672457E-05
(PID.TID 0000.0001) // =======================================================
(PID.TID 0000.0001) // End MONITOR dynamic field statistics
(PID.TID 0000.0001) // =======================================================
time,SST,SSS,fu,fv,Q,E-P,i0,i1,a,b =   3.4560E+05  2.5227E+01  0.0000E+00 -1.0045E-02  2.7897E-02 -8.8079E+01 -5.1109E-09    12     1  6.6667E-01  3.3333E-01
time,fu0,fu1,fu =   3.4560E+05 -1.3840E-02 -8.1474E-03 -1.0045E-02  6.666666666666666E-01  3.333333333333334E-01
 cg2d: Sum(rhs),rhsMax =   6.93889390390723E-16  1.72945916370160E+02
(PID.TID 0000.0001)                    cg2d_init_res =    1.06015465324837E-01
(PID.TID 0000.0001)                       cg2d_iters =    99
(PID.TID 0000.0001)                         cg2d_res =    8.15178475152497E-10
(PID.TID 0000.0001) // =======================================================
(PID.TID 0000.0001) // Begin MONITOR dynamic field statistics
(PID.TID 0000.0001) // =======================================================
(PID.TID 0000.0001) %MON time_tsnumber                =                     3
(PID.TID 0000.0001) %MON time_secondsf                =   5.1840000000000E+05
(PID.TID 0000.0001) %MON dynstat_eta_max              =   5.1297592440481E+04
(PID.TID 0000.0001) %MON dynstat_eta_min              =  -9.1295473454095E+04
(PID.TID 0000.0001) %MON dynstat_eta_mean             =  -4.8266466559617E-12
(PID.TID 0000.0001) %MON dynstat_eta_sd               =   3.9696771039257E+04
(PID.TID 0000.0001) %MON dynstat_eta_del2             =   2.3981508043931E+04
(PID.TID 0000.0001) %MON dynstat_uvel_max             =   7.1974494761671E-02
(PID.TID 0000.0001) %MON dynstat_uvel_min             =  -5.1968579375802E-02
(PID.TID 0000.0001) %MON dynstat_uvel_mean            =  -1.1614105891485E-03
(PID.TID 0000.0001) %MON dynstat_uvel_sd              =   2.7063531847158E-03
(PID.TID 0000.0001) %MON dynstat_uvel_del2            =   1.1073988016784E-03
(PID.TID 0000.0001) %MON dynstat_vvel_max             =   5.4077264429085E-02
(PID.TID 0000.0001) %MON dynstat_vvel_min             =  -4.5486466278768E-02
(PID.TID 0000.0001) %MON dynstat_vvel_mean            =   1.5247180579996E-03
(PID.TID 0000.0001) %MON dynstat_vvel_sd              =   4.1663379223592E-03
(PID.TID 0000.0001) %MON dynstat_vvel_del2            =   1.2424143946713E-03
(PID.TID 0000.0001) %MON dynstat_wvel_max             =   8.8864337430899E-01
(PID.TID 0000.0001) %MON dynstat_wvel_min             =  -1.0818420453066E+00
(PID.TID 0000.0001) %MON dynstat_wvel_mean            =  -1.5498426547284E-03
(PID.TID 0000.0001) %MON dynstat_wvel_sd              =   1.2224194154308E-01
(PID.TID 0000.0001) %MON dynstat_wvel_del2            =   6.2569328298682E-02
(PID.TID 0000.0001) %MON dynstat_theta_max            =   2.9675051451633E+01
(PID.TID 0000.0001) %MON dynstat_theta_min            =  -2.6038579281500E+00
(PID.TID 0000.0001) %MON dynstat_theta_mean           =   3.6021604300180E+00
(PID.TID 0000.0001) %MON dynstat_theta_sd             =   4.4012819006897E+00
(PID.TID 0000.0001) %MON dynstat_theta_del2           =   1.5212462181663E-01
(PID.TID 0000.0001) %MON dynstat_salt_max             =   3.7435160944133E+01
(PID.TID 0000.0001) %MON dynstat_salt_min             =   2.9770563581341E+01
(PID.TID 0000.0001) %MON dynstat_salt_mean            =   3.4718001226688E+01
(PID.TID 0000.0001) %MON dynstat_salt_sd              =   2.9442255053707E-01
(PID.TID 0000.0001) %MON dynstat_salt_del2            =   2.6913038671071E-02
(PID.TID 0000.0001) %MON advcfl_uvel_max              =   4.2013955948159E-02
(PID.TID 0000.0001) %MON advcfl_vvel_max              =   2.1012690367042E-02
(PID.TID 0000.0001) %MON advcfl_wvel_max              =   6.7819277518091E-02
(PID.TID 0000.0001) %MON advcfl_W_hf_max              =   6.7819277518091E-02
(PID.TID 0000.0001) %MON pe_b_mean                    =  -8.1525620187552E-03
(PID.TID 0000.0001) %MON ke_max                       =   2.0313738454525E-03
(PID.TID 0000.0001) %MON ke_mean                      =   1.2750683408091E-05
(PID.TID 0000.0001) %MON ke_vol                       =   1.3442141716554E+22
(PID.TID 0000.0001) %MON vort_r_min                   =  -2.0971441350029E-07
(PID.TID 0000.0001) %MON vort_r_max                   =   2.3822132737818E-07
(PID.TID 0000.0001) %MON vort_a_mean                  =  -2.4531016156358E-05
(PID.TID 0000.0001) %MON vort_a_sd                    =   7.3435757774810E-05
(PID.TID 0000.0001) %MON vort_p_mean                  =  -2.9400606300676E-05
(PID.TID 0000.0001) %MON vort_p_sd                    =   1.0337416737944E-04
(PID.TID 0000.0001) %MON surfExpan_theta_mean         =   1.7624274208930E-02
(PID.TID 0000.0001) %MON surfExpan_salt_mean          =  -2.8926549192913E-04
(PID.TID 0000.0001) // =======================================================
(PID.TID 0000.0001) // End MONITOR dynamic field statistics
(PID.TID 0000.0001) // =======================================================
time,SST,SSS,fu,fv,Q,E-P,i0,i1,a,b =   5.1840E+05  2.5366E+01  0.0000E+00 -9.6655E-03  2.7114E-02 -8.8865E+01 -5.1109E-09    12     1  7.3333E-01  2.6667E-01
time,fu0,fu1,fu =   5.1840E+05 -1.3840E-02 -8.1474E-03 -9.6655E-03  7.333333333333333E-01  2.666666666666667E-01
 cg2d: Sum(rhs),rhsMax =   9.43689570931383E-16  1.72905607851935E+02
(PID.TID 0000.0001)                    cg2d_init_res =    8.88322022710518E-03
(PID.TID 0000.0001)                       cg2d_iters =    91
(PID.TID 0000.0001)                         cg2d_res =    9.15952235367340E-10
(PID.TID 0000.0001) // =======================================================
(PID.TID 0000.0001) // Begin MONITOR dynamic field statistics
(PID.TID 0000.0001) // =======================================================
(PID.TID 0000.0001) %MON time_tsnumber                =                     4
(PID.TID 0000.0001) %MON time_secondsf                =   6.9120000000000E+05
(PID.TID 0000.0001) %MON dynstat_eta_max              =   5.1013682886510E+04
(PID.TID 0000.0001) %MON dynstat_eta_min              =  -9.2901598544131E+04
(PID.TID 0000.0001) %MON dynstat_eta_mean             =  -4.3878605963288E-12
(PID.TID 0000.0001) %MON dynstat_eta_sd               =   4.0207168954765E+04
(PID.TID 0000.0001) %MON dynstat_eta_del2             =   2.3955142119085E+04
(PID.TID 0000.0001) %MON dynstat_uvel_max             =   6.1610319889184E-02
(PID.TID 0000.0001) %MON dynstat_uvel_min             =  -7.8157005925501E-02
(PID.TID 0000.0001) %MON dynstat_uvel_mean            =  -8.8769824645130E-04
(PID.TID 0000.0001) %MON dynstat_uvel_sd              =   3.1026030913551E-03
(PID.TID 0000.0001) %MON dynstat_uvel_del2            =   1.3422764233930E-03
(PID.TID 0000.0001) %MON dynstat_vvel_max             =   5.0830171158620E-02
(PID.TID 0000.0001) %MON dynstat_vvel_min             =  -5.9423585811346E-02
(PID.TID 0000.0001) %MON dynstat_vvel_mean            =   1.2053495666247E-03
(PID.TID 0000.0001) %MON dynstat_vvel_sd              =   5.2716661299573E-03
(PID.TID 0000.0001) %MON dynstat_vvel_del2            =   1.5552149978819E-03
(PID.TID 0000.0001) %MON dynstat_wvel_max             =   1.1534898740817E+00
(PID.TID 0000.0001) %MON dynstat_wvel_min             =  -1.3278297645378E+00
(PID.TID 0000.0001) %MON dynstat_wvel_mean            =  -9.7458413683943E-04
(PID.TID 0000.0001) %MON dynstat_wvel_sd              =   1.4928667769938E-01
(PID.TID 0000.0001) %MON dynstat_wvel_del2            =   7.3882973439176E-02
(PID.TID 0000.0001) %MON dynstat_theta_max            =   2.9664831944479E+01
(PID.TID 0000.0001) %MON dynstat_theta_min            =  -2.5955295757830E+00
(PID.TID 0000.0001) %MON dynstat_theta_mean           =   3.6023453974726E+00
(PID.TID 0000.0001) %MON dynstat_theta_sd             =   4.4013280689474E+00
(PID.TID 0000.0001) %MON dynstat_theta_del2           =   1.4997265622870E-01
(PID.TID 0000.0001) %MON dynstat_salt_max             =   3.7435137766080E+01
(PID.TID 0000.0001) %MON dynstat_salt_min             =   2.9775143676529E+01
(PID.TID 0000.0001) %MON dynstat_salt_mean            =   3.4718001734944E+01
(PID.TID 0000.0001) %MON dynstat_salt_sd              =   2.9441625375229E-01
(PID.TID 0000.0001) %MON dynstat_salt_del2            =   2.6758708093869E-02
(PID.TID 0000.0001) %MON advcfl_uvel_max              =   4.9448494242357E-02
(PID.TID 0000.0001) %MON advcfl_vvel_max              =   2.3090099366816E-02
(PID.TID 0000.0001) %MON advcfl_wvel_max              =   8.2187545126665E-02
(PID.TID 0000.0001) %MON advcfl_W_hf_max              =   8.2187545126665E-02
(PID.TID 0000.0001) %MON pe_b_mean                    =  -8.3976396370299E-03
(PID.TID 0000.0001) %MON ke_max                       =   2.4116647932811E-03
(PID.TID 0000.0001) %MON ke_mean                      =   1.7824382677804E-05
(PID.TID 0000.0001) %MON ke_vol                       =   1.3442141716554E+22
(PID.TID 0000.0001) %MON vort_r_min                   =  -2.2420237323065E-07
(PID.TID 0000.0001) %MON vort_r_max                   =   2.8405208508169E-07
(PID.TID 0000.0001) %MON vort_a_mean                  =  -2.4531016293396E-05
(PID.TID 0000.0001) %MON vort_a_sd                    =   7.3435817991833E-05
(PID.TID 0000.0001) %MON vort_p_mean                  =  -2.9400708514275E-05
(PID.TID 0000.0001) %MON vort_p_sd                    =   1.0337649614537E-04
(PID.TID 0000.0001) %MON surfExpan_theta_mean         =   1.0062396300831E-02
(PID.TID 0000.0001) %MON surfExpan_salt_mean          =  -2.3719415619789E-04
(PID.TID 0000.0001) // =======================================================
(PID.TID 0000.0001) // End MONITOR dynamic field statistics
(PID.TID 0000.0001) // =======================================================
time,SST,SSS,fu,fv,Q,E-P,i0,i1,a,b =   6.9120E+05  2.5505E+01  0.0000E+00 -9.2860E-03  2.6332E-02 -8.9652E+01 -5.1109E-09    12     1  8.0000E-01  2.0000E-01
time,fu0,fu1,fu =   6.9120E+05 -1.3840E-02 -8.1474E-03 -9.2860E-03  8.000000000000000E-01  2.000000000000000E-01
 cg2d: Sum(rhs),rhsMax =   2.10942374678780E-15  1.72918674395763E+02
(PID.TID 0000.0001)                    cg2d_init_res =    4.68682986215413E-03
(PID.TID 0000.0001)                       cg2d_iters =    94
(PID.TID 0000.0001)                         cg2d_res =    9.71839044244981E-10
(PID.TID 0000.0001) // =======================================================
(PID.TID 0000.0001) // Begin MONITOR dynamic field statistics
(PID.TID 0000.0001) // =======================================================
(PID.TID 0000.0001) %MON time_tsnumber                =                     5
(PID.TID 0000.0001) %MON time_secondsf                =   8.6400000000000E+05
(PID.TID 0000.0001) %MON dynstat_eta_max              =   5.8773294799086E+04
(PID.TID 0000.0001) %MON dynstat_eta_min              =  -9.4342755053697E+04
(PID.TID 0000.0001) %MON dynstat_eta_mean             =  -8.7757211926576E-13
(PID.TID 0000.0001) %MON dynstat_eta_sd               =   4.0653016022273E+04
(PID.TID 0000.0001) %MON dynstat_eta_del2             =   2.3953583059374E+04
(PID.TID 0000.0001) %MON dynstat_uvel_max             =   5.9543653953556E-02
(PID.TID 0000.0001) %MON dynstat_uvel_min             =  -9.1776061793771E-02
(PID.TID 0000.0001) %MON dynstat_uvel_mean            =  -4.7330754729519E-04
(PID.TID 0000.0001) %MON dynstat_uvel_sd              =   3.5781767954157E-03
(PID.TID 0000.0001) %MON dynstat_uvel_del2            =   1.5504497269458E-03
(PID.TID 0000.0001) %MON dynstat_vvel_max             =   6.0695147546779E-02
(PID.TID 0000.0001) %MON dynstat_vvel_min             =  -7.2172228015797E-02
(PID.TID 0000.0001) %MON dynstat_vvel_mean            =   7.4645613559735E-04
(PID.TID 0000.0001) %MON dynstat_vvel_sd              =   6.3128359725211E-03
(PID.TID 0000.0001) %MON dynstat_vvel_del2            =   1.8433799123977E-03
(PID.TID 0000.0001) %MON dynstat_wvel_max             =   1.4020746573935E+00
(PID.TID 0000.0001) %MON dynstat_wvel_min             =  -1.5220725005875E+00
(PID.TID 0000.0001) %MON dynstat_wvel_mean            =  -6.8520265727987E-04
(PID.TID 0000.0001) %MON dynstat_wvel_sd              =   1.7381307985817E-01
(PID.TID 0000.0001) %MON dynstat_wvel_del2            =   8.3626128694978E-02
(PID.TID 0000.0001) %MON dynstat_theta_max            =   2.9661584834365E+01
(PID.TID 0000.0001) %MON dynstat_theta_min            =  -2.5873153246494E+00
(PID.TID 0000.0001) %MON dynstat_theta_mean           =   3.6024982629003E+00
(PID.TID 0000.0001) %MON dynstat_theta_sd             =   4.4013883500813E+00
(PID.TID 0000.0001) %MON dynstat_theta_del2           =   1.4774208576022E-01
(PID.TID 0000.0001) %MON dynstat_salt_max             =   3.7435038884809E+01
(PID.TID 0000.0001) %MON dynstat_salt_min             =   2.9777804882817E+01
(PID.TID 0000.0001) %MON dynstat_salt_mean            =   3.4718001594770E+01
(PID.TID 0000.0001) %MON dynstat_salt_sd              =   2.9441805883358E-01
(PID.TID 0000.0001) %MON dynstat_salt_del2            =   2.6634288212292E-02
(PID.TID 0000.0001) %MON advcfl_uvel_max              =   5.3876733546083E-02
(PID.TID 0000.0001) %MON advcfl_vvel_max              =   2.8043812800188E-02
(PID.TID 0000.0001) %MON advcfl_wvel_max              =   9.5633419100853E-02
(PID.TID 0000.0001) %MON advcfl_W_hf_max              =   9.5633419100853E-02
(PID.TID 0000.0001) %MON pe_b_mean                    =  -8.4402760200123E-03
(PID.TID 0000.0001) %MON ke_max                       =   3.6257825604293E-03
(PID.TID 0000.0001) %MON ke_mean                      =   2.4012726946447E-05
(PID.TID 0000.0001) %MON ke_vol                       =   1.3442141716554E+22
(PID.TID 0000.0001) %MON vort_r_min                   =  -2.5881170108703E-07
(PID.TID 0000.0001) %MON vort_r_max                   =   3.0035274618712E-07
(PID.TID 0000.0001) %MON vort_a_mean                  =  -2.4531016372279E-05
(PID.TID 0000.0001) %MON vort_a_sd                    =   7.3435913019901E-05
(PID.TID 0000.0001) %MON vort_p_mean                  =  -2.9400840468084E-05
(PID.TID 0000.0001) %MON vort_p_sd                    =   1.0337802947270E-04
(PID.TID 0000.0001) %MON surfExpan_theta_mean         =   6.0157513346847E-03
(PID.TID 0000.0001) %MON surfExpan_salt_mean          =  -1.1549372247053E-04
(PID.TID 0000.0001) // =======================================================
(PID.TID 0000.0001) // End MONITOR dynamic field statistics
(PID.TID 0000.0001) // =======================================================
time,SST,SSS,fu,fv,Q,E-P,i0,i1,a,b =   8.6400E+05  2.5645E+01  0.0000E+00 -8.9065E-03  2.5549E-02 -9.0439E+01 -5.1109E-09    12     1  8.6667E-01  1.3333E-01
time,fu0,fu1,fu =   8.6400E+05 -1.3840E-02 -8.1474E-03 -8.9065E-03  8.666666666666667E-01  1.333333333333333E-01
 cg2d: Sum(rhs),rhsMax =   6.10622663543836E-16  1.72928008322210E+02
(PID.TID 0000.0001)                    cg2d_init_res =    3.45143926568148E-03
(PID.TID 0000.0001)                       cg2d_iters =    91
(PID.TID 0000.0001)                         cg2d_res =    9.78865461336035E-10
(PID.TID 0000.0001) // =======================================================
(PID.TID 0000.0001) // Begin MONITOR dynamic field statistics
(PID.TID 0000.0001) // =======================================================
(PID.TID 0000.0001) %MON time_tsnumber                =                     6
(PID.TID 0000.0001) %MON time_secondsf                =   1.0368000000000E+06
(PID.TID 0000.0001) %MON dynstat_eta_max              =   6.2209295514282E+04
(PID.TID 0000.0001) %MON dynstat_eta_min              =  -9.5072790983769E+04
(PID.TID 0000.0001) %MON dynstat_eta_mean             =  -7.8981490733918E-12
(PID.TID 0000.0001) %MON dynstat_eta_sd               =   4.0801323483172E+04
(PID.TID 0000.0001) %MON dynstat_eta_del2             =   2.3953932730788E+04
(PID.TID 0000.0001) %MON dynstat_uvel_max             =   7.3968113702044E-02
(PID.TID 0000.0001) %MON dynstat_uvel_min             =  -9.0175798056869E-02
(PID.TID 0000.0001) %MON dynstat_uvel_mean            =  -3.8966780007424E-05
(PID.TID 0000.0001) %MON dynstat_uvel_sd              =   4.2141516553180E-03
(PID.TID 0000.0001) %MON dynstat_uvel_del2            =   1.7359235490834E-03
(PID.TID 0000.0001) %MON dynstat_vvel_max             =   6.9116524931843E-02
(PID.TID 0000.0001) %MON dynstat_vvel_min             =  -8.3440452625706E-02
(PID.TID 0000.0001) %MON dynstat_vvel_mean            =   2.7834077818218E-04
(PID.TID 0000.0001) %MON dynstat_vvel_sd              =   7.2913877968292E-03
(PID.TID 0000.0001) %MON dynstat_vvel_del2            =   2.1078941909481E-03
(PID.TID 0000.0001) %MON dynstat_wvel_max             =   1.6177796846321E+00
(PID.TID 0000.0001) %MON dynstat_wvel_min             =  -1.6533393570961E+00
(PID.TID 0000.0001) %MON dynstat_wvel_mean            =  -3.9199359198602E-04
(PID.TID 0000.0001) %MON dynstat_wvel_sd              =   1.9514697356898E-01
(PID.TID 0000.0001) %MON dynstat_wvel_del2            =   9.1433040675256E-02
(PID.TID 0000.0001) %MON dynstat_theta_max            =   2.9706282912295E+01
(PID.TID 0000.0001) %MON dynstat_theta_min            =  -2.5961460153533E+00
(PID.TID 0000.0001) %MON dynstat_theta_mean           =   3.6026389661386E+00
(PID.TID 0000.0001) %MON dynstat_theta_sd             =   4.4014686039960E+00
(PID.TID 0000.0001) %MON dynstat_theta_del2           =   1.4563317871437E-01
(PID.TID 0000.0001) %MON dynstat_salt_max             =   3.7434857844828E+01
(PID.TID 0000.0001) %MON dynstat_salt_min             =   2.9778879814772E+01
(PID.TID 0000.0001) %MON dynstat_salt_mean            =   3.4718001268978E+01
(PID.TID 0000.0001) %MON dynstat_salt_sd              =   2.9441940433684E-01
(PID.TID 0000.0001) %MON dynstat_salt_del2            =   2.6516191807812E-02
(PID.TID 0000.0001) %MON advcfl_uvel_max              =   5.3816381843732E-02
(PID.TID 0000.0001) %MON advcfl_vvel_max              =   3.2422283442407E-02
(PID.TID 0000.0001) %MON advcfl_wvel_max              =   1.0549014399449E-01
(PID.TID 0000.0001) %MON advcfl_W_hf_max              =   1.0549014399449E-01
(PID.TID 0000.0001) %MON pe_b_mean                    =  -8.5183344778799E-03
(PID.TID 0000.0001) %MON ke_max                       =   3.8298349192528E-03
(PID.TID 0000.0001) %MON ke_mean                      =   3.1908314355476E-05
(PID.TID 0000.0001) %MON ke_vol                       =   1.3442141716554E+22
(PID.TID 0000.0001) %MON vort_r_min                   =  -2.9338706156898E-07
(PID.TID 0000.0001) %MON vort_r_max                   =   3.0149680207823E-07
(PID.TID 0000.0001) %MON vort_a_mean                  =  -2.4531016356480E-05
(PID.TID 0000.0001) %MON vort_a_sd                    =   7.3436014130747E-05
(PID.TID 0000.0001) %MON vort_p_mean                  =  -2.9400918684118E-05
(PID.TID 0000.0001) %MON vort_p_sd                    =   1.0337864359966E-04
(PID.TID 0000.0001) %MON surfExpan_theta_mean         =   2.1317855981426E-03
(PID.TID 0000.0001) %MON surfExpan_salt_mean          =  -6.0628152656032E-05
(PID.TID 0000.0001) // =======================================================
(PID.TID 0000.0001) // End MONITOR dynamic field statistics
(PID.TID 0000.0001) // =======================================================
time,SST,SSS,fu,fv,Q,E-P,i0,i1,a,b =   1.0368E+06  2.5784E+01  0.0000E+00 -8.5269E-03  2.4767E-02 -9.1226E+01 -5.1109E-09    12     1  9.3333E-01  6.6667E-02
time,fu0,fu1,fu =   1.0368E+06 -1.3840E-02 -8.1474E-03 -8.5269E-03  9.333333333333333E-01  6.666666666666665E-02
 cg2d: Sum(rhs),rhsMax =   1.33226762955019E-15  1.72940024849502E+02
(PID.TID 0000.0001)                    cg2d_init_res =    3.58755509213123E-03
(PID.TID 0000.0001)                       cg2d_iters =    91
(PID.TID 0000.0001)                         cg2d_res =    9.19995592293480E-10
(PID.TID 0000.0001) // =======================================================
(PID.TID 0000.0001) // Begin MONITOR dynamic field statistics
(PID.TID 0000.0001) // =======================================================
(PID.TID 0000.0001) %MON time_tsnumber                =                     7
(PID.TID 0000.0001) %MON time_secondsf                =   1.2096000000000E+06
(PID.TID 0000.0001) %MON dynstat_eta_max              =   6.1155442878465E+04
(PID.TID 0000.0001) %MON dynstat_eta_min              =  -9.5059561569134E+04
(PID.TID 0000.0001) %MON dynstat_eta_mean             =   8.7757211926576E-13
(PID.TID 0000.0001) %MON dynstat_eta_sd               =   4.0659443136937E+04
(PID.TID 0000.0001) %MON dynstat_eta_del2             =   2.3955578650974E+04
(PID.TID 0000.0001) %MON dynstat_uvel_max             =   8.8189675556727E-02
(PID.TID 0000.0001) %MON dynstat_uvel_min             =  -7.5483035981722E-02
(PID.TID 0000.0001) %MON dynstat_uvel_mean            =   3.1899990849686E-04
(PID.TID 0000.0001) %MON dynstat_uvel_sd              =   4.9839588831973E-03
(PID.TID 0000.0001) %MON dynstat_uvel_del2            =   1.8998629402536E-03
(PID.TID 0000.0001) %MON dynstat_vvel_max             =   7.6043300660089E-02
(PID.TID 0000.0001) %MON dynstat_vvel_min             =  -9.4862800010726E-02
(PID.TID 0000.0001) %MON dynstat_vvel_mean            =  -9.9608055496013E-05
(PID.TID 0000.0001) %MON dynstat_vvel_sd              =   8.1826819511144E-03
(PID.TID 0000.0001) %MON dynstat_vvel_del2            =   2.3434683417154E-03
(PID.TID 0000.0001) %MON dynstat_wvel_max             =   1.7916437821935E+00
(PID.TID 0000.0001) %MON dynstat_wvel_min             =  -1.7236769039722E+00
(PID.TID 0000.0001) %MON dynstat_wvel_mean            =  -8.5413110641641E-05
(PID.TID 0000.0001) %MON dynstat_wvel_sd              =   2.1276837773524E-01
(PID.TID 0000.0001) %MON dynstat_wvel_del2            =   9.7202329162052E-02
(PID.TID 0000.0001) %MON dynstat_theta_max            =   2.9752525546138E+01
(PID.TID 0000.0001) %MON dynstat_theta_min            =  -2.6766340929071E+00
(PID.TID 0000.0001) %MON dynstat_theta_mean           =   3.6027764355752E+00
(PID.TID 0000.0001) %MON dynstat_theta_sd             =   4.4015744409851E+00
(PID.TID 0000.0001) %MON dynstat_theta_del2           =   1.4394313016760E-01
(PID.TID 0000.0001) %MON dynstat_salt_max             =   3.7434632041657E+01
(PID.TID 0000.0001) %MON dynstat_salt_min             =   2.9778946643474E+01
(PID.TID 0000.0001) %MON dynstat_salt_mean            =   3.4718001120716E+01
(PID.TID 0000.0001) %MON dynstat_salt_sd              =   2.9442001354643E-01
(PID.TID 0000.0001) %MON dynstat_salt_del2            =   2.6437662914495E-02
(PID.TID 0000.0001) %MON advcfl_uvel_max              =   5.8299657915871E-02
(PID.TID 0000.0001) %MON advcfl_vvel_max              =   3.6860641251371E-02
(PID.TID 0000.0001) %MON advcfl_wvel_max              =   1.1178095996457E-01
(PID.TID 0000.0001) %MON advcfl_W_hf_max              =   1.1178095996457E-01
(PID.TID 0000.0001) %MON pe_b_mean                    =  -8.6506618207393E-03
(PID.TID 0000.0001) %MON ke_max                       =   5.0511187520886E-03
(PID.TID 0000.0001) %MON ke_mean                      =   4.1312130599784E-05
(PID.TID 0000.0001) %MON ke_vol                       =   1.3442141716554E+22
(PID.TID 0000.0001) %MON vort_r_min                   =  -2.7703574465427E-07
(PID.TID 0000.0001) %MON vort_r_max                   =   2.6894668461617E-07
(PID.TID 0000.0001) %MON vort_a_mean                  =  -2.4531016238590E-05
(PID.TID 0000.0001) %MON vort_a_sd                    =   7.3436098290257E-05
(PID.TID 0000.0001) %MON vort_p_mean                  =  -2.9400918825981E-05
(PID.TID 0000.0001) %MON vort_p_sd                    =   1.0337849785493E-04
(PID.TID 0000.0001) %MON surfExpan_theta_mean         =  -1.6208683309265E-03
(PID.TID 0000.0001) %MON surfExpan_salt_mean          =  -5.5074909139162E-05
(PID.TID 0000.0001) // =======================================================
(PID.TID 0000.0001) // End MONITOR dynamic field statistics
(PID.TID 0000.0001) // =======================================================
S/R EXTERNAL_FIELDS_LOAD: Reading new data:    1    2         7  1.209600000000E+06
(PID.TID 0000.0001)  MDSREADFIELD: opening global file: trenberth_taux.bin
(PID.TID 0000.0001)  MDSREADFIELD: opening global file: trenberth_taux.bin
(PID.TID 0000.0001)  MDSREADFIELD: opening global file: trenberth_tauy.bin
(PID.TID 0000.0001)  MDSREADFIELD: opening global file: trenberth_tauy.bin
(PID.TID 0000.0001)  MDSREADFIELD: opening global file: shi_qnet.bin
(PID.TID 0000.0001)  MDSREADFIELD: opening global file: shi_qnet.bin
(PID.TID 0000.0001)  MDSREADFIELD: opening global file: shi_empmr.bin
(PID.TID 0000.0001)  MDSREADFIELD: opening global file: shi_empmr.bin
(PID.TID 0000.0001)  MDSREADFIELD: opening global file: lev_sst.bin
(PID.TID 0000.0001)  MDSREADFIELD: opening global file: lev_sst.bin
(PID.TID 0000.0001)  MDSREADFIELD: opening global file: deltageopotjmd95.bin
(PID.TID 0000.0001)  MDSREADFIELD: opening global file: deltageopotjmd95.bin
time,SST,SSS,fu,fv,Q,E-P,i0,i1,a,b =   1.2096E+06  2.5923E+01  0.0000E+00 -8.1474E-03  2.3984E-02 -9.2012E+01 -5.1109E-09     1     2  0.0000E+00  1.0000E+00
time,fu0,fu1,fu =   1.2096E+06 -8.1474E-03 -4.7952E-03 -8.1474E-03  0.000000000000000E+00  1.000000000000000E+00
 cg2d: Sum(rhs),rhsMax =   1.22124532708767E-15  1.72953738545364E+02
(PID.TID 0000.0001)                    cg2d_init_res =    3.93579575016056E-03
(PID.TID 0000.0001)                       cg2d_iters =    90
(PID.TID 0000.0001)                         cg2d_res =    8.67494951965218E-10
(PID.TID 0000.0001) // =======================================================
(PID.TID 0000.0001) // Begin MONITOR dynamic field statistics
(PID.TID 0000.0001) // =======================================================
(PID.TID 0000.0001) %MON time_tsnumber                =                     8
(PID.TID 0000.0001) %MON time_secondsf                =   1.3824000000000E+06
(PID.TID 0000.0001) %MON dynstat_eta_max              =   5.6617399218873E+04
(PID.TID 0000.0001) %MON dynstat_eta_min              =  -9.4429995542618E+04
(PID.TID 0000.0001) %MON dynstat_eta_mean             =   5.7042187752274E-12
(PID.TID 0000.0001) %MON dynstat_eta_sd               =   4.0356629574248E+04
(PID.TID 0000.0001) %MON dynstat_eta_del2             =   2.3957811053170E+04
(PID.TID 0000.0001) %MON dynstat_uvel_max             =   1.0172716355051E-01
(PID.TID 0000.0001) %MON dynstat_uvel_min             =  -6.5374108887052E-02
(PID.TID 0000.0001) %MON dynstat_uvel_mean            =   5.4565818849103E-04
(PID.TID 0000.0001) %MON dynstat_uvel_sd              =   5.8262096529699E-03
(PID.TID 0000.0001) %MON dynstat_uvel_del2            =   2.0399769680097E-03
(PID.TID 0000.0001) %MON dynstat_vvel_max             =   8.1474893600907E-02
(PID.TID 0000.0001) %MON dynstat_vvel_min             =  -1.0475335276496E-01
(PID.TID 0000.0001) %MON dynstat_vvel_mean            =  -3.3374380574227E-04
(PID.TID 0000.0001) %MON dynstat_vvel_sd              =   8.9610428020525E-03
(PID.TID 0000.0001) %MON dynstat_vvel_del2            =   2.5440457770646E-03
(PID.TID 0000.0001) %MON dynstat_wvel_max             =   1.9172473170440E+00
(PID.TID 0000.0001) %MON dynstat_wvel_min             =  -1.7392475617580E+00
(PID.TID 0000.0001) %MON dynstat_wvel_mean            =   1.7824191745404E-04
(PID.TID 0000.0001) %MON dynstat_wvel_sd              =   2.2630329902785E-01
(PID.TID 0000.0001) %MON dynstat_wvel_del2            =   1.0084031266144E-01
(PID.TID 0000.0001) %MON dynstat_theta_max            =   2.9804736717074E+01
(PID.TID 0000.0001) %MON dynstat_theta_min            =  -2.7604596059889E+00
(PID.TID 0000.0001) %MON dynstat_theta_mean           =   3.6029089373102E+00
(PID.TID 0000.0001) %MON dynstat_theta_sd             =   4.4017029750984E+00
(PID.TID 0000.0001) %MON dynstat_theta_del2           =   1.4262762975539E-01
(PID.TID 0000.0001) %MON dynstat_salt_max             =   3.7434376299946E+01
(PID.TID 0000.0001) %MON dynstat_salt_min             =   2.9778316212824E+01
(PID.TID 0000.0001) %MON dynstat_salt_mean            =   3.4718001104385E+01
(PID.TID 0000.0001) %MON dynstat_salt_sd              =   2.9442253772517E-01
(PID.TID 0000.0001) %MON dynstat_salt_del2            =   2.6382092543008E-02
(PID.TID 0000.0001) %MON advcfl_uvel_max              =   6.7248901850556E-02
(PID.TID 0000.0001) %MON advcfl_vvel_max              =   4.0703792800876E-02
(PID.TID 0000.0001) %MON advcfl_wvel_max              =   1.1933283974402E-01
(PID.TID 0000.0001) %MON advcfl_W_hf_max              =   1.1933283974402E-01
(PID.TID 0000.0001) %MON pe_b_mean                    =  -8.7594536922963E-03
(PID.TID 0000.0001) %MON ke_max                       =   6.3510728559957E-03
(PID.TID 0000.0001) %MON ke_mean                      =   5.1550995768105E-05
(PID.TID 0000.0001) %MON ke_vol                       =   1.3442141716554E+22
(PID.TID 0000.0001) %MON vort_r_min                   =  -2.4490608461166E-07
(PID.TID 0000.0001) %MON vort_r_max                   =   2.1345250396237E-07
(PID.TID 0000.0001) %MON vort_a_mean                  =  -2.4531016037768E-05
(PID.TID 0000.0001) %MON vort_a_sd                    =   7.3436152145112E-05
(PID.TID 0000.0001) %MON vort_p_mean                  =  -2.9400853004927E-05
(PID.TID 0000.0001) %MON vort_p_sd                    =   1.0337784307069E-04
(PID.TID 0000.0001) %MON surfExpan_theta_mean         =  -4.3264326621011E-03
(PID.TID 0000.0001) %MON surfExpan_salt_mean          =  -5.6976493262204E-05
(PID.TID 0000.0001) // =======================================================
(PID.TID 0000.0001) // End MONITOR dynamic field statistics
(PID.TID 0000.0001) // =======================================================
time,SST,SSS,fu,fv,Q,E-P,i0,i1,a,b =   1.3824E+06  2.5894E+01  0.0000E+00 -7.9239E-03  2.3829E-02 -9.0919E+01 -5.1109E-09     1     2  6.6667E-02  9.3333E-01
time,fu0,fu1,fu =   1.3824E+06 -8.1474E-03 -4.7952E-03 -7.9239E-03  6.666666666666667E-02  9.333333333333333E-01
 cg2d: Sum(rhs),rhsMax =   2.69229083471600E-15  1.72967887832195E+02
(PID.TID 0000.0001)                    cg2d_init_res =    3.96273818380688E-03
(PID.TID 0000.0001)                       cg2d_iters =    92
(PID.TID 0000.0001)                         cg2d_res =    9.27007537415390E-10
(PID.TID 0000.0001) // =======================================================
(PID.TID 0000.0001) // Begin MONITOR dynamic field statistics
(PID.TID 0000.0001) // =======================================================
(PID.TID 0000.0001) %MON time_tsnumber                =                     9
(PID.TID 0000.0001) %MON time_secondsf                =   1.5552000000000E+06
(PID.TID 0000.0001) %MON dynstat_eta_max              =   5.2272832946358E+04
(PID.TID 0000.0001) %MON dynstat_eta_min              =  -9.3568421880182E+04
(PID.TID 0000.0001) %MON dynstat_eta_mean             =   2.6327163577973E-12
(PID.TID 0000.0001) %MON dynstat_eta_sd               =   4.0032082736970E+04
(PID.TID 0000.0001) %MON dynstat_eta_del2             =   2.3959227645200E+04
(PID.TID 0000.0001) %MON dynstat_uvel_max             =   1.1448741484167E-01
(PID.TID 0000.0001) %MON dynstat_uvel_min             =  -6.6937318664327E-02
(PID.TID 0000.0001) %MON dynstat_uvel_mean            =   6.2891463504986E-04
(PID.TID 0000.0001) %MON dynstat_uvel_sd              =   6.7070736197228E-03
(PID.TID 0000.0001) %MON dynstat_uvel_del2            =   2.1577248005219E-03
(PID.TID 0000.0001) %MON dynstat_vvel_max             =   8.4913199818045E-02
(PID.TID 0000.0001) %MON dynstat_vvel_min             =  -1.1294429824358E-01
(PID.TID 0000.0001) %MON dynstat_vvel_mean            =  -4.1852052636321E-04
(PID.TID 0000.0001) %MON dynstat_vvel_sd              =   9.6114561565758E-03
(PID.TID 0000.0001) %MON dynstat_vvel_del2            =   2.7078749738017E-03
(PID.TID 0000.0001) %MON dynstat_wvel_max             =   1.9912172192274E+00
(PID.TID 0000.0001) %MON dynstat_wvel_min             =  -1.7055258122864E+00
(PID.TID 0000.0001) %MON dynstat_wvel_mean            =   3.5985361171573E-04
(PID.TID 0000.0001) %MON dynstat_wvel_sd              =   2.3569744424165E-01
(PID.TID 0000.0001) %MON dynstat_wvel_del2            =   1.0250530509742E-01
(PID.TID 0000.0001) %MON dynstat_theta_max            =   2.9845475239533E+01
(PID.TID 0000.0001) %MON dynstat_theta_min            =  -2.8334018192396E+00
(PID.TID 0000.0001) %MON dynstat_theta_mean           =   3.6030340942337E+00
(PID.TID 0000.0001) %MON dynstat_theta_sd             =   4.4018516074513E+00
(PID.TID 0000.0001) %MON dynstat_theta_del2           =   1.4178838503583E-01
(PID.TID 0000.0001) %MON dynstat_salt_max             =   3.7434103391835E+01
(PID.TID 0000.0001) %MON dynstat_salt_min             =   2.9777174117854E+01
(PID.TID 0000.0001) %MON dynstat_salt_mean            =   3.4718001108567E+01
(PID.TID 0000.0001) %MON dynstat_salt_sd              =   2.9442158790077E-01
(PID.TID 0000.0001) %MON dynstat_salt_del2            =   2.6367950297406E-02
(PID.TID 0000.0001) %MON advcfl_uvel_max              =   7.5684336956749E-02
(PID.TID 0000.0001) %MON advcfl_vvel_max              =   4.3886531479923E-02
(PID.TID 0000.0001) %MON advcfl_wvel_max              =   1.2739469798333E-01
(PID.TID 0000.0001) %MON advcfl_W_hf_max              =   1.2739469798333E-01
(PID.TID 0000.0001) %MON pe_b_mean                    =  -8.7720914205578E-03
(PID.TID 0000.0001) %MON ke_max                       =   7.7151473674401E-03
(PID.TID 0000.0001) %MON ke_mean                      =   6.2038328148196E-05
(PID.TID 0000.0001) %MON ke_vol                       =   1.3442141716554E+22
(PID.TID 0000.0001) %MON vort_r_min                   =  -3.2430519925037E-07
(PID.TID 0000.0001) %MON vort_r_max                   =   2.8388627673159E-07
(PID.TID 0000.0001) %MON vort_a_mean                  =  -2.4531015789486E-05
(PID.TID 0000.0001) %MON vort_a_sd                    =   7.3436172394039E-05
(PID.TID 0000.0001) %MON vort_p_mean                  =  -2.9400747419117E-05
(PID.TID 0000.0001) %MON vort_p_sd                    =   1.0337690674054E-04
(PID.TID 0000.0001) %MON surfExpan_theta_mean         =  -5.4608758580406E-03
(PID.TID 0000.0001) %MON surfExpan_salt_mean          =  -5.4011811511671E-05
(PID.TID 0000.0001) // =======================================================
(PID.TID 0000.0001) // End MONITOR dynamic field statistics
(PID.TID 0000.0001) // =======================================================
time,SST,SSS,fu,fv,Q,E-P,i0,i1,a,b =   1.5552E+06  2.5865E+01  0.0000E+00 -7.7005E-03  2.3673E-02 -8.9826E+01 -5.1109E-09     1     2  1.3333E-01  8.6667E-01
time,fu0,fu1,fu =   1.5552E+06 -8.1474E-03 -4.7952E-03 -7.7005E-03  1.333333333333333E-01  8.666666666666667E-01
 cg2d: Sum(rhs),rhsMax =  -2.74780198594726E-15  1.72980780279225E+02
(PID.TID 0000.0001)                    cg2d_init_res =    3.62698834905192E-03
(PID.TID 0000.0001)                       cg2d_iters =    93
(PID.TID 0000.0001)                         cg2d_res =    9.19573665065150E-10
(PID.TID 0000.0001) // =======================================================
(PID.TID 0000.0001) // Begin MONITOR dynamic field statistics
(PID.TID 0000.0001) // =======================================================
(PID.TID 0000.0001) %MON time_tsnumber                =                    10
(PID.TID 0000.0001) %MON time_secondsf                =   1.7280000000000E+06
(PID.TID 0000.0001) %MON dynstat_eta_max              =   5.1377200733841E+04
(PID.TID 0000.0001) %MON dynstat_eta_min              =  -9.2841862504853E+04
(PID.TID 0000.0001) %MON dynstat_eta_mean             =   3.9490745366959E-12
(PID.TID 0000.0001) %MON dynstat_eta_sd               =   3.9769789395509E+04
(PID.TID 0000.0001) %MON dynstat_eta_del2             =   2.3960644791875E+04
(PID.TID 0000.0001) %MON dynstat_uvel_max             =   1.2630571763363E-01
(PID.TID 0000.0001) %MON dynstat_uvel_min             =  -6.6697633797795E-02
(PID.TID 0000.0001) %MON dynstat_uvel_mean            =   5.9161165142609E-04
(PID.TID 0000.0001) %MON dynstat_uvel_sd              =   7.6231004254460E-03
(PID.TID 0000.0001) %MON dynstat_uvel_del2            =   2.2639238647876E-03
(PID.TID 0000.0001) %MON dynstat_vvel_max             =   8.6873341528552E-02
(PID.TID 0000.0001) %MON dynstat_vvel_min             =  -1.1933198628511E-01
(PID.TID 0000.0001) %MON dynstat_vvel_mean            =  -3.8444632718429E-04
(PID.TID 0000.0001) %MON dynstat_vvel_sd              =   1.0130032089371E-02
(PID.TID 0000.0001) %MON dynstat_vvel_del2            =   2.8365092254766E-03
(PID.TID 0000.0001) %MON dynstat_wvel_max             =   2.0210396983226E+00
(PID.TID 0000.0001) %MON dynstat_wvel_min             =  -1.6345152710404E+00
(PID.TID 0000.0001) %MON dynstat_wvel_mean            =   4.4773269425321E-04
(PID.TID 0000.0001) %MON dynstat_wvel_sd              =   2.4124148918072E-01
(PID.TID 0000.0001) %MON dynstat_wvel_del2            =   1.0254450722880E-01
(PID.TID 0000.0001) %MON dynstat_theta_max            =   2.9880791008172E+01
(PID.TID 0000.0001) %MON dynstat_theta_min            =  -2.9013491921393E+00
(PID.TID 0000.0001) %MON dynstat_theta_mean           =   3.6031509457870E+00
(PID.TID 0000.0001) %MON dynstat_theta_sd             =   4.4020171600804E+00
(PID.TID 0000.0001) %MON dynstat_theta_del2           =   1.4123754439006E-01
(PID.TID 0000.0001) %MON dynstat_salt_max             =   3.7433823798356E+01
(PID.TID 0000.0001) %MON dynstat_salt_min             =   2.9775825311018E+01
(PID.TID 0000.0001) %MON dynstat_salt_mean            =   3.4718001099192E+01
(PID.TID 0000.0001) %MON dynstat_salt_sd              =   2.9442386272472E-01
(PID.TID 0000.0001) %MON dynstat_salt_del2            =   2.6379635907009E-02
(PID.TID 0000.0001) %MON advcfl_uvel_max              =   8.3497077003337E-02
(PID.TID 0000.0001) %MON advcfl_vvel_max              =   4.6368582160463E-02
(PID.TID 0000.0001) %MON advcfl_wvel_max              =   1.3317564978567E-01
(PID.TID 0000.0001) %MON advcfl_W_hf_max              =   1.3317564978567E-01
(PID.TID 0000.0001) %MON pe_b_mean                    =  -8.6738627386113E-03
(PID.TID 0000.0001) %MON ke_max                       =   9.1174215140212E-03
(PID.TID 0000.0001) %MON ke_mean                      =   7.2539143353790E-05
(PID.TID 0000.0001) %MON ke_vol                       =   1.3442141716554E+22
(PID.TID 0000.0001) %MON vort_r_min                   =  -4.0597772392865E-07
(PID.TID 0000.0001) %MON vort_r_max                   =   3.6468954405223E-07
(PID.TID 0000.0001) %MON vort_a_mean                  =  -2.4531015535519E-05
(PID.TID 0000.0001) %MON vort_a_sd                    =   7.3436164012549E-05
(PID.TID 0000.0001) %MON vort_p_mean                  =  -2.9400633748898E-05
(PID.TID 0000.0001) %MON vort_p_sd                    =   1.0337595053356E-04
(PID.TID 0000.0001) %MON surfExpan_theta_mean         =  -5.1196920785220E-03
(PID.TID 0000.0001) %MON surfExpan_salt_mean          =  -5.2484965712216E-05
(PID.TID 0000.0001) // =======================================================
(PID.TID 0000.0001) // End MONITOR dynamic field statistics
(PID.TID 0000.0001) // =======================================================
time,SST,SSS,fu,fv,Q,E-P,i0,i1,a,b =   1.7280E+06  2.5836E+01  0.0000E+00 -7.4770E-03  2.3518E-02 -8.8733E+01 -5.1109E-09     1     2  2.0000E-01  8.0000E-01
time,fu0,fu1,fu =   1.7280E+06 -8.1474E-03 -4.7952E-03 -7.4770E-03  2.000000000000000E-01  8.000000000000000E-01
 cg2d: Sum(rhs),rhsMax =   5.55111512312578E-17  1.72990784308882E+02
(PID.TID 0000.0001)                    cg2d_init_res =    3.12697145900491E-03
(PID.TID 0000.0001)                       cg2d_iters =    91
(PID.TID 0000.0001)                         cg2d_res =    9.41622088675104E-10
(PID.TID 0000.0001) // =======================================================
(PID.TID 0000.0001) // Begin MONITOR dynamic field statistics
(PID.TID 0000.0001) // =======================================================
(PID.TID 0000.0001) %MON time_tsnumber                =                    11
(PID.TID 0000.0001) %MON time_secondsf                =   1.9008000000000E+06
(PID.TID 0000.0001) %MON dynstat_eta_max              =   4.7517192728108E+04
(PID.TID 0000.0001) %MON dynstat_eta_min              =  -9.2588059559665E+04
(PID.TID 0000.0001) %MON dynstat_eta_mean             =  -4.8266466559617E-12
(PID.TID 0000.0001) %MON dynstat_eta_sd               =   3.9595120241134E+04
(PID.TID 0000.0001) %MON dynstat_eta_del2             =   2.3961817980357E+04
(PID.TID 0000.0001) %MON dynstat_uvel_max             =   1.3711704930935E-01
(PID.TID 0000.0001) %MON dynstat_uvel_min             =  -6.4754402694267E-02
(PID.TID 0000.0001) %MON dynstat_uvel_mean            =   4.7895992551453E-04
(PID.TID 0000.0001) %MON dynstat_uvel_sd              =   8.5767398572197E-03
(PID.TID 0000.0001) %MON dynstat_uvel_del2            =   2.3669461078831E-03
(PID.TID 0000.0001) %MON dynstat_vvel_max             =   8.9472911929892E-02
(PID.TID 0000.0001) %MON dynstat_vvel_min             =  -1.2387050176277E-01
(PID.TID 0000.0001) %MON dynstat_vvel_mean            =  -2.8044665364194E-04
(PID.TID 0000.0001) %MON dynstat_vvel_sd              =   1.0519105460607E-02
(PID.TID 0000.0001) %MON dynstat_vvel_del2            =   2.9318084691086E-03
(PID.TID 0000.0001) %MON dynstat_wvel_max             =   2.1375311137755E+00
(PID.TID 0000.0001) %MON dynstat_wvel_min             =  -1.5548556224312E+00
(PID.TID 0000.0001) %MON dynstat_wvel_mean            =   4.5214153734882E-04
(PID.TID 0000.0001) %MON dynstat_wvel_sd              =   2.4344070865508E-01
(PID.TID 0000.0001) %MON dynstat_wvel_del2            =   1.0143145903571E-01
(PID.TID 0000.0001) %MON dynstat_theta_max            =   2.9910877019322E+01
(PID.TID 0000.0001) %MON dynstat_theta_min            =  -2.9643084255665E+00
(PID.TID 0000.0001) %MON dynstat_theta_mean           =   3.6032596459746E+00
(PID.TID 0000.0001) %MON dynstat_theta_sd             =   4.4021927266467E+00
(PID.TID 0000.0001) %MON dynstat_theta_del2           =   1.4115161691176E-01
(PID.TID 0000.0001) %MON dynstat_salt_max             =   3.7433555437152E+01
(PID.TID 0000.0001) %MON dynstat_salt_min             =   2.9774404450325E+01
(PID.TID 0000.0001) %MON dynstat_salt_mean            =   3.4718001095483E+01
(PID.TID 0000.0001) %MON dynstat_salt_sd              =   2.9442147438251E-01
(PID.TID 0000.0001) %MON dynstat_salt_del2            =   2.6410170041425E-02
(PID.TID 0000.0001) %MON advcfl_uvel_max              =   9.0644137408428E-02
(PID.TID 0000.0001) %MON advcfl_vvel_max              =   4.8132103697009E-02
(PID.TID 0000.0001) %MON advcfl_wvel_max              =   1.3649255199178E-01
(PID.TID 0000.0001) %MON advcfl_W_hf_max              =   1.3649255199178E-01
(PID.TID 0000.0001) %MON pe_b_mean                    =  -8.5000038354177E-03
(PID.TID 0000.0001) %MON ke_max                       =   1.0551188386560E-02
(PID.TID 0000.0001) %MON ke_mean                      =   8.3051088708439E-05
(PID.TID 0000.0001) %MON ke_vol                       =   1.3442141716554E+22
(PID.TID 0000.0001) %MON vort_r_min                   =  -4.6845346794787E-07
(PID.TID 0000.0001) %MON vort_r_max                   =   4.2580858882710E-07
(PID.TID 0000.0001) %MON vort_a_mean                  =  -2.4531015314636E-05
(PID.TID 0000.0001) %MON vort_a_sd                    =   7.3436137276741E-05
(PID.TID 0000.0001) %MON vort_p_mean                  =  -2.9400538988616E-05
(PID.TID 0000.0001) %MON vort_p_sd                    =   1.0337519794479E-04
(PID.TID 0000.0001) %MON surfExpan_theta_mean         =  -3.7970299064531E-03
(PID.TID 0000.0001) %MON surfExpan_salt_mean          =  -5.6069813789122E-05
(PID.TID 0000.0001) // =======================================================
(PID.TID 0000.0001) // End MONITOR dynamic field statistics
(PID.TID 0000.0001) // =======================================================
time,SST,SSS,fu,fv,Q,E-P,i0,i1,a,b =   1.9008E+06  2.5807E+01  0.0000E+00 -7.2535E-03  2.3362E-02 -8.7640E+01 -5.1109E-09     1     2  2.6667E-01  7.3333E-01
time,fu0,fu1,fu =   1.9008E+06 -8.1474E-03 -4.7952E-03 -7.2535E-03  2.666666666666667E-01  7.333333333333334E-01
 cg2d: Sum(rhs),rhsMax =   6.66133814775094E-16  1.72997130431368E+02
(PID.TID 0000.0001)                    cg2d_init_res =    2.73188345350972E-03
(PID.TID 0000.0001)                       cg2d_iters =    84
(PID.TID 0000.0001)                         cg2d_res =    8.91171486028733E-10
(PID.TID 0000.0001) // =======================================================
(PID.TID 0000.0001) // Begin MONITOR dynamic field statistics
(PID.TID 0000.0001) // =======================================================
(PID.TID 0000.0001) %MON time_tsnumber                =                    12
(PID.TID 0000.0001) %MON time_secondsf                =   2.0736000000000E+06
(PID.TID 0000.0001) %MON dynstat_eta_max              =   4.2957222031428E+04
(PID.TID 0000.0001) %MON dynstat_eta_min              =  -9.2540137179411E+04
(PID.TID 0000.0001) %MON dynstat_eta_mean             =   2.1939302981644E-12
(PID.TID 0000.0001) %MON dynstat_eta_sd               =   3.9503407803298E+04
(PID.TID 0000.0001) %MON dynstat_eta_del2             =   2.3962700943816E+04
(PID.TID 0000.0001) %MON dynstat_uvel_max             =   1.4843345216420E-01
(PID.TID 0000.0001) %MON dynstat_uvel_min             =  -6.9027731605445E-02
(PID.TID 0000.0001) %MON dynstat_uvel_mean            =   3.4367207752517E-04
(PID.TID 0000.0001) %MON dynstat_uvel_sd              =   9.5587733525807E-03
(PID.TID 0000.0001) %MON dynstat_uvel_del2            =   2.4639934224158E-03
(PID.TID 0000.0001) %MON dynstat_vvel_max             =   9.0793686113284E-02
(PID.TID 0000.0001) %MON dynstat_vvel_min             =  -1.2719212212031E-01
(PID.TID 0000.0001) %MON dynstat_vvel_mean            =  -1.5659776564904E-04
(PID.TID 0000.0001) %MON dynstat_vvel_sd              =   1.0783426808064E-02
(PID.TID 0000.0001) %MON dynstat_vvel_del2            =   2.9991170532999E-03
(PID.TID 0000.0001) %MON dynstat_wvel_max             =   2.2829406925590E+00
(PID.TID 0000.0001) %MON dynstat_wvel_min             =  -1.4727570888021E+00
(PID.TID 0000.0001) %MON dynstat_wvel_mean            =   3.9594990820092E-04
(PID.TID 0000.0001) %MON dynstat_wvel_sd              =   2.4285700181506E-01
(PID.TID 0000.0001) %MON dynstat_wvel_del2            =   9.9696872390260E-02
(PID.TID 0000.0001) %MON dynstat_theta_max            =   2.9935979968822E+01
(PID.TID 0000.0001) %MON dynstat_theta_min            =  -3.0223753580381E+00
(PID.TID 0000.0001) %MON dynstat_theta_mean           =   3.6033618819720E+00
(PID.TID 0000.0001) %MON dynstat_theta_sd             =   4.4023807983677E+00
(PID.TID 0000.0001) %MON dynstat_theta_del2           =   1.4124663790218E-01
(PID.TID 0000.0001) %MON dynstat_salt_max             =   3.7433320007929E+01
(PID.TID 0000.0001) %MON dynstat_salt_min             =   2.9773035857566E+01
(PID.TID 0000.0001) %MON dynstat_salt_mean            =   3.4718001105620E+01
(PID.TID 0000.0001) %MON dynstat_salt_sd              =   2.9441709976889E-01
(PID.TID 0000.0001) %MON dynstat_salt_del2            =   2.6441636338634E-02
(PID.TID 0000.0001) %MON advcfl_uvel_max              =   9.7107689036116E-02
(PID.TID 0000.0001) %MON advcfl_vvel_max              =   4.9422778823177E-02
(PID.TID 0000.0001) %MON advcfl_wvel_max              =   1.3719913668333E-01
(PID.TID 0000.0001) %MON advcfl_W_hf_max              =   1.3719913668333E-01
(PID.TID 0000.0001) %MON pe_b_mean                    =  -8.2991982261423E-03
(PID.TID 0000.0001) %MON ke_max                       =   1.1974227057373E-02
(PID.TID 0000.0001) %MON ke_mean                      =   9.3565793633087E-05
(PID.TID 0000.0001) %MON ke_vol                       =   1.3442141716554E+22
(PID.TID 0000.0001) %MON vort_r_min                   =  -5.0686249360826E-07
(PID.TID 0000.0001) %MON vort_r_max                   =   4.6225087924861E-07
(PID.TID 0000.0001) %MON vort_a_mean                  =  -2.4531015156741E-05
(PID.TID 0000.0001) %MON vort_a_sd                    =   7.3436104283315E-05
(PID.TID 0000.0001) %MON vort_p_mean                  =  -2.9400475996851E-05
(PID.TID 0000.0001) %MON vort_p_sd                    =   1.0337477621953E-04
(PID.TID 0000.0001) %MON surfExpan_theta_mean         =  -2.1024681907235E-03
(PID.TID 0000.0001) %MON surfExpan_salt_mean          =  -6.1237925427943E-05
(PID.TID 0000.0001) // =======================================================
(PID.TID 0000.0001) // End MONITOR dynamic field statistics
(PID.TID 0000.0001) // =======================================================
time,SST,SSS,fu,fv,Q,E-P,i0,i1,a,b =   2.0736E+06  2.5778E+01  0.0000E+00 -7.0300E-03  2.3207E-02 -8.6547E+01 -5.1109E-09     1     2  3.3333E-01  6.6667E-01
time,fu0,fu1,fu =   2.0736E+06 -8.1474E-03 -4.7952E-03 -7.0300E-03  3.333333333333333E-01  6.666666666666667E-01
 cg2d: Sum(rhs),rhsMax =  -2.55351295663786E-15  1.72999984746132E+02
(PID.TID 0000.0001)                    cg2d_init_res =    2.58843757425231E-03
(PID.TID 0000.0001)                       cg2d_iters =    88
(PID.TID 0000.0001)                         cg2d_res =    8.46726315736001E-10
(PID.TID 0000.0001) // =======================================================
(PID.TID 0000.0001) // Begin MONITOR dynamic field statistics
(PID.TID 0000.0001) // =======================================================
(PID.TID 0000.0001) %MON time_tsnumber                =                    13
(PID.TID 0000.0001) %MON time_secondsf                =   2.2464000000000E+06
(PID.TID 0000.0001) %MON dynstat_eta_max              =   4.2948172871552E+04
(PID.TID 0000.0001) %MON dynstat_eta_min              =  -9.2455772060689E+04
(PID.TID 0000.0001) %MON dynstat_eta_mean             =  -7.0205769541261E-12
(PID.TID 0000.0001) %MON dynstat_eta_sd               =   3.9482755657974E+04
(PID.TID 0000.0001) %MON dynstat_eta_del2             =   2.3963384343566E+04
(PID.TID 0000.0001) %MON dynstat_uvel_max             =   1.5902741255582E-01
(PID.TID 0000.0001) %MON dynstat_uvel_min             =  -7.3961139384853E-02
(PID.TID 0000.0001) %MON dynstat_uvel_mean            =   2.3221019558067E-04
(PID.TID 0000.0001) %MON dynstat_uvel_sd              =   1.0547483946248E-02
(PID.TID 0000.0001) %MON dynstat_uvel_del2            =   2.5592855517221E-03
(PID.TID 0000.0001) %MON dynstat_vvel_max             =   9.1003852302506E-02
(PID.TID 0000.0001) %MON dynstat_vvel_min             =  -1.3058530589758E-01
(PID.TID 0000.0001) %MON dynstat_vvel_mean            =  -5.1752801095053E-05
(PID.TID 0000.0001) %MON dynstat_vvel_sd              =   1.0928999242551E-02
(PID.TID 0000.0001) %MON dynstat_vvel_del2            =   3.0421792511486E-03
(PID.TID 0000.0001) %MON dynstat_wvel_max             =   2.4172587972563E+00
(PID.TID 0000.0001) %MON dynstat_wvel_min             =  -1.4408564689017E+00
(PID.TID 0000.0001) %MON dynstat_wvel_mean            =   3.0739258886542E-04
(PID.TID 0000.0001) %MON dynstat_wvel_sd              =   2.4000731443957E-01
(PID.TID 0000.0001) %MON dynstat_wvel_del2            =   9.7675618783110E-02
(PID.TID 0000.0001) %MON dynstat_theta_max            =   2.9956272032658E+01
(PID.TID 0000.0001) %MON dynstat_theta_min            =  -3.0756287893638E+00
(PID.TID 0000.0001) %MON dynstat_theta_mean           =   3.6034590870494E+00
(PID.TID 0000.0001) %MON dynstat_theta_sd             =   4.4025855161010E+00
(PID.TID 0000.0001) %MON dynstat_theta_del2           =   1.4163302177287E-01
(PID.TID 0000.0001) %MON dynstat_salt_max             =   3.7433142262436E+01
(PID.TID 0000.0001) %MON dynstat_salt_min             =   2.9771775654335E+01
(PID.TID 0000.0001) %MON dynstat_salt_mean            =   3.4718001120254E+01
(PID.TID 0000.0001) %MON dynstat_salt_sd              =   2.9441789127460E-01
(PID.TID 0000.0001) %MON dynstat_salt_del2            =   2.6500698291387E-02
(PID.TID 0000.0001) %MON advcfl_uvel_max              =   1.0286568625825E-01
(PID.TID 0000.0001) %MON advcfl_vvel_max              =   5.0741261198775E-02
(PID.TID 0000.0001) %MON advcfl_wvel_max              =   1.3519792485929E-01
(PID.TID 0000.0001) %MON advcfl_W_hf_max              =   1.3519792485929E-01
(PID.TID 0000.0001) %MON pe_b_mean                    =  -8.1066127982008E-03
(PID.TID 0000.0001) %MON ke_max                       =   1.3355675117543E-02
(PID.TID 0000.0001) %MON ke_mean                      =   1.0394626272166E-04
(PID.TID 0000.0001) %MON ke_vol                       =   1.3442141716554E+22
(PID.TID 0000.0001) %MON vort_r_min                   =  -5.2050784256433E-07
(PID.TID 0000.0001) %MON vort_r_max                   =   4.7337628896665E-07
(PID.TID 0000.0001) %MON vort_a_mean                  =  -2.4531015078715E-05
(PID.TID 0000.0001) %MON vort_a_sd                    =   7.3436075752595E-05
(PID.TID 0000.0001) %MON vort_p_mean                  =  -2.9400449430169E-05
(PID.TID 0000.0001) %MON vort_p_sd                    =   1.0337471432498E-04
(PID.TID 0000.0001) %MON surfExpan_theta_mean         =  -5.6045227467336E-04
(PID.TID 0000.0001) %MON surfExpan_salt_mean          =  -6.0347386154904E-05
(PID.TID 0000.0001) // =======================================================
(PID.TID 0000.0001) // End MONITOR dynamic field statistics
(PID.TID 0000.0001) // =======================================================
time,SST,SSS,fu,fv,Q,E-P,i0,i1,a,b =   2.2464E+06  2.5749E+01  0.0000E+00 -6.8065E-03  2.3052E-02 -8.5454E+01 -5.1109E-09     1     2  4.0000E-01  6.0000E-01
time,fu0,fu1,fu =   2.2464E+06 -8.1474E-03 -4.7952E-03 -6.8065E-03  4.000000000000000E-01  6.000000000000000E-01
 cg2d: Sum(rhs),rhsMax =   9.43689570931383E-16  1.73000122266426E+02
(PID.TID 0000.0001)                    cg2d_init_res =    2.58978655655829E-03
(PID.TID 0000.0001)                       cg2d_iters =    88
(PID.TID 0000.0001)                         cg2d_res =    9.90593887099121E-10
(PID.TID 0000.0001) // =======================================================
(PID.TID 0000.0001) // Begin MONITOR dynamic field statistics
(PID.TID 0000.0001) // =======================================================
(PID.TID 0000.0001) %MON time_tsnumber                =                    14
(PID.TID 0000.0001) %MON time_secondsf                =   2.4192000000000E+06
(PID.TID 0000.0001) %MON dynstat_eta_max              =   4.3129981850212E+04
(PID.TID 0000.0001) %MON dynstat_eta_min              =  -9.2543526177131E+04
(PID.TID 0000.0001) %MON dynstat_eta_mean             =  -8.7757211926576E-13
(PID.TID 0000.0001) %MON dynstat_eta_sd               =   3.9518067971781E+04
(PID.TID 0000.0001) %MON dynstat_eta_del2             =   2.3964255822495E+04
(PID.TID 0000.0001) %MON dynstat_uvel_max             =   1.6830258476163E-01
(PID.TID 0000.0001) %MON dynstat_uvel_min             =  -7.9853571831709E-02
(PID.TID 0000.0001) %MON dynstat_uvel_mean            =   1.7502977770754E-04
(PID.TID 0000.0001) %MON dynstat_uvel_sd              =   1.1517501423229E-02
(PID.TID 0000.0001) %MON dynstat_uvel_del2            =   2.6533033332708E-03
(PID.TID 0000.0001) %MON dynstat_vvel_max             =   9.0201365822941E-02
(PID.TID 0000.0001) %MON dynstat_vvel_min             =  -1.3247686444261E-01
(PID.TID 0000.0001) %MON dynstat_vvel_mean            =   1.2553135790021E-05
(PID.TID 0000.0001) %MON dynstat_vvel_sd              =   1.0964145977495E-02
(PID.TID 0000.0001) %MON dynstat_vvel_del2            =   3.0636941522587E-03
(PID.TID 0000.0001) %MON dynstat_wvel_max             =   2.5418346881934E+00
(PID.TID 0000.0001) %MON dynstat_wvel_min             =  -1.5097922768229E+00
(PID.TID 0000.0001) %MON dynstat_wvel_mean            =   2.1255143466597E-04
(PID.TID 0000.0001) %MON dynstat_wvel_sd              =   2.3537753690058E-01
(PID.TID 0000.0001) %MON dynstat_wvel_del2            =   9.5582991555199E-02
(PID.TID 0000.0001) %MON dynstat_theta_max            =   2.9971857867101E+01
(PID.TID 0000.0001) %MON dynstat_theta_min            =  -3.1241398241724E+00
(PID.TID 0000.0001) %MON dynstat_theta_mean           =   3.6035544694322E+00
(PID.TID 0000.0001) %MON dynstat_theta_sd             =   4.4027941452391E+00
(PID.TID 0000.0001) %MON dynstat_theta_del2           =   1.4211889458255E-01
(PID.TID 0000.0001) %MON dynstat_salt_max             =   3.7433047350203E+01
(PID.TID 0000.0001) %MON dynstat_salt_min             =   2.9770620138169E+01
(PID.TID 0000.0001) %MON dynstat_salt_mean            =   3.4718001118960E+01
(PID.TID 0000.0001) %MON dynstat_salt_sd              =   2.9440980384160E-01
(PID.TID 0000.0001) %MON dynstat_salt_del2            =   2.6562667379604E-02
(PID.TID 0000.0001) %MON advcfl_uvel_max              =   1.0788237776773E-01
(PID.TID 0000.0001) %MON advcfl_vvel_max              =   5.1476260175469E-02
(PID.TID 0000.0001) %MON advcfl_wvel_max              =   1.3045221393550E-01
(PID.TID 0000.0001) %MON advcfl_W_hf_max              =   1.3045221393550E-01
(PID.TID 0000.0001) %MON pe_b_mean                    =  -7.9405029110039E-03
(PID.TID 0000.0001) %MON ke_max                       =   1.4666980543824E-02
(PID.TID 0000.0001) %MON ke_mean                      =   1.1397213603325E-04
(PID.TID 0000.0001) %MON ke_vol                       =   1.3442141716554E+22
(PID.TID 0000.0001) %MON vort_r_min                   =  -5.1259191238443E-07
(PID.TID 0000.0001) %MON vort_r_max                   =   4.6623323413756E-07
(PID.TID 0000.0001) %MON vort_a_mean                  =  -2.4531015083264E-05
(PID.TID 0000.0001) %MON vort_a_sd                    =   7.3436058776339E-05
(PID.TID 0000.0001) %MON vort_p_mean                  =  -2.9400455781997E-05
(PID.TID 0000.0001) %MON vort_p_sd                    =   1.0337495425445E-04
(PID.TID 0000.0001) %MON surfExpan_theta_mean         =   4.9356177599771E-04
(PID.TID 0000.0001) %MON surfExpan_salt_mean          =  -4.7695481469860E-05
(PID.TID 0000.0001) // =======================================================
(PID.TID 0000.0001) // End MONITOR dynamic field statistics
(PID.TID 0000.0001) // =======================================================
time,SST,SSS,fu,fv,Q,E-P,i0,i1,a,b =   2.4192E+06  2.5720E+01  0.0000E+00 -6.5830E-03  2.2896E-02 -8.4361E+01 -5.1109E-09     1     2  4.6667E-01  5.3333E-01
time,fu0,fu1,fu =   2.4192E+06 -8.1474E-03 -4.7952E-03 -6.5830E-03  4.666666666666667E-01  5.333333333333333E-01
 cg2d: Sum(rhs),rhsMax =  -2.77555756156289E-15  1.72998517723416E+02
(PID.TID 0000.0001)                    cg2d_init_res =    2.55880127818970E-03
(PID.TID 0000.0001)                       cg2d_iters =    89
(PID.TID 0000.0001)                         cg2d_res =    8.26411557457536E-10
(PID.TID 0000.0001) // =======================================================
(PID.TID 0000.0001) // Begin MONITOR dynamic field statistics
(PID.TID 0000.0001) // =======================================================
(PID.TID 0000.0001) %MON time_tsnumber                =                    15
(PID.TID 0000.0001) %MON time_secondsf                =   2.5920000000000E+06
(PID.TID 0000.0001) %MON dynstat_eta_max              =   4.4272550350314E+04
(PID.TID 0000.0001) %MON dynstat_eta_min              =  -9.2733207782728E+04
(PID.TID 0000.0001) %MON dynstat_eta_mean             =   1.3602367848619E-11
(PID.TID 0000.0001) %MON dynstat_eta_sd               =   3.9586681673783E+04
(PID.TID 0000.0001) %MON dynstat_eta_del2             =   2.3965700164423E+04
(PID.TID 0000.0001) %MON dynstat_uvel_max             =   1.7615252178623E-01
(PID.TID 0000.0001) %MON dynstat_uvel_min             =  -8.4389605039849E-02
(PID.TID 0000.0001) %MON dynstat_uvel_mean            =   1.8261359807920E-04
(PID.TID 0000.0001) %MON dynstat_uvel_sd              =   1.2447668012418E-02
(PID.TID 0000.0001) %MON dynstat_uvel_del2            =   2.7472554355087E-03
(PID.TID 0000.0001) %MON dynstat_vvel_max             =   8.8497996717090E-02
(PID.TID 0000.0001) %MON dynstat_vvel_min             =  -1.3287224426522E-01
(PID.TID 0000.0001) %MON dynstat_vvel_mean            =   3.2374376111613E-05
(PID.TID 0000.0001) %MON dynstat_vvel_sd              =   1.0901154825751E-02
(PID.TID 0000.0001) %MON dynstat_vvel_del2            =   3.0698132963957E-03
(PID.TID 0000.0001) %MON dynstat_wvel_max             =   2.6570446550041E+00
(PID.TID 0000.0001) %MON dynstat_wvel_min             =  -1.5544625097946E+00
(PID.TID 0000.0001) %MON dynstat_wvel_mean            =   1.2987033155613E-04
(PID.TID 0000.0001) %MON dynstat_wvel_sd              =   2.2947557653444E-01
(PID.TID 0000.0001) %MON dynstat_wvel_del2            =   9.3648610514112E-02
(PID.TID 0000.0001) %MON dynstat_theta_max            =   2.9982785379937E+01
(PID.TID 0000.0001) %MON dynstat_theta_min            =  -3.1679770884371E+00
(PID.TID 0000.0001) %MON dynstat_theta_mean           =   3.6036486901345E+00
(PID.TID 0000.0001) %MON dynstat_theta_sd             =   4.4030320657389E+00
(PID.TID 0000.0001) %MON dynstat_theta_del2           =   1.4261327365925E-01
(PID.TID 0000.0001) %MON dynstat_salt_max             =   3.7433057986166E+01
(PID.TID 0000.0001) %MON dynstat_salt_min             =   2.9769524708629E+01
(PID.TID 0000.0001) %MON dynstat_salt_mean            =   3.4718001086955E+01
(PID.TID 0000.0001) %MON dynstat_salt_sd              =   2.9440921131433E-01
(PID.TID 0000.0001) %MON dynstat_salt_del2            =   2.6605036222573E-02
(PID.TID 0000.0001) %MON advcfl_uvel_max              =   1.1210709280767E-01
(PID.TID 0000.0001) %MON advcfl_vvel_max              =   5.1629892092275E-02
(PID.TID 0000.0001) %MON advcfl_wvel_max              =   1.2299659372614E-01
(PID.TID 0000.0001) %MON advcfl_W_hf_max              =   1.2299659372614E-01
(PID.TID 0000.0001) %MON pe_b_mean                    =  -7.8115643180311E-03
(PID.TID 0000.0001) %MON ke_max                       =   1.5884751603263E-02
(PID.TID 0000.0001) %MON ke_mean                      =   1.2345111379911E-04
(PID.TID 0000.0001) %MON ke_vol                       =   1.3442141716554E+22
(PID.TID 0000.0001) %MON vort_r_min                   =  -4.8910321551323E-07
(PID.TID 0000.0001) %MON vort_r_max                   =   4.9987406225444E-07
(PID.TID 0000.0001) %MON vort_a_mean                  =  -2.4531015159309E-05
(PID.TID 0000.0001) %MON vort_a_sd                    =   7.3436055915983E-05
(PID.TID 0000.0001) %MON vort_p_mean                  =  -2.9400485708408E-05
(PID.TID 0000.0001) %MON vort_p_sd                    =   1.0337537905541E-04
(PID.TID 0000.0001) %MON surfExpan_theta_mean         =   9.4352554505646E-04
(PID.TID 0000.0001) %MON surfExpan_salt_mean          =  -2.2181364556946E-05
(PID.TID 0000.0001) // =======================================================
(PID.TID 0000.0001) // End MONITOR dynamic field statistics
(PID.TID 0000.0001) // =======================================================
time,SST,SSS,fu,fv,Q,E-P,i0,i1,a,b =   2.5920E+06  2.5691E+01  0.0000E+00 -6.3596E-03  2.2741E-02 -8.3268E+01 -5.1109E-09     1     2  5.3333E-01  4.6667E-01
time,fu0,fu1,fu =   2.5920E+06 -8.1474E-03 -4.7952E-03 -6.3596E-03  5.333333333333333E-01  4.666666666666667E-01
 cg2d: Sum(rhs),rhsMax =  -1.02695629777827E-15  1.72995991485010E+02
(PID.TID 0000.0001)                    cg2d_init_res =    2.45012873010543E-03
(PID.TID 0000.0001)                       cg2d_iters =    89
(PID.TID 0000.0001)                         cg2d_res =    7.73766156683297E-10
(PID.TID 0000.0001) // =======================================================
(PID.TID 0000.0001) // Begin MONITOR dynamic field statistics
(PID.TID 0000.0001) // =======================================================
(PID.TID 0000.0001) %MON time_tsnumber                =                    16
(PID.TID 0000.0001) %MON time_secondsf                =   2.7648000000000E+06
(PID.TID 0000.0001) %MON dynstat_eta_max              =   4.6789219589899E+04
(PID.TID 0000.0001) %MON dynstat_eta_min              =  -9.2852228685731E+04
(PID.TID 0000.0001) %MON dynstat_eta_mean             =   2.1939302981644E-12
(PID.TID 0000.0001) %MON dynstat_eta_sd               =   3.9659485174320E+04
(PID.TID 0000.0001) %MON dynstat_eta_del2             =   2.3966763008310E+04
(PID.TID 0000.0001) %MON dynstat_uvel_max             =   1.8326040378617E-01
(PID.TID 0000.0001) %MON dynstat_uvel_min             =  -8.7623433257475E-02
(PID.TID 0000.0001) %MON dynstat_uvel_mean            =   2.4726531970131E-04
(PID.TID 0000.0001) %MON dynstat_uvel_sd              =   1.3323272121288E-02
(PID.TID 0000.0001) %MON dynstat_uvel_del2            =   2.8447980551744E-03
(PID.TID 0000.0001) %MON dynstat_vvel_max             =   8.9081036041632E-02
(PID.TID 0000.0001) %MON dynstat_vvel_min             =  -1.3177952845954E-01
(PID.TID 0000.0001) %MON dynstat_vvel_mean            =   1.7415404106334E-05
(PID.TID 0000.0001) %MON dynstat_vvel_sd              =   1.0756870394901E-02
(PID.TID 0000.0001) %MON dynstat_vvel_del2            =   3.0670610576566E-03
(PID.TID 0000.0001) %MON dynstat_wvel_max             =   2.7624651938851E+00
(PID.TID 0000.0001) %MON dynstat_wvel_min             =  -1.5764588214296E+00
(PID.TID 0000.0001) %MON dynstat_wvel_mean            =   6.7151620536443E-05
(PID.TID 0000.0001) %MON dynstat_wvel_sd              =   2.2284906743847E-01
(PID.TID 0000.0001) %MON dynstat_wvel_del2            =   9.1869813693545E-02
(PID.TID 0000.0001) %MON dynstat_theta_max            =   2.9989060479422E+01
(PID.TID 0000.0001) %MON dynstat_theta_min            =  -3.2072081125526E+00
(PID.TID 0000.0001) %MON dynstat_theta_mean           =   3.6037435820996E+00
(PID.TID 0000.0001) %MON dynstat_theta_sd             =   4.4032904957401E+00
(PID.TID 0000.0001) %MON dynstat_theta_del2           =   1.4297902255505E-01
(PID.TID 0000.0001) %MON dynstat_salt_max             =   3.7433191983746E+01
(PID.TID 0000.0001) %MON dynstat_salt_min             =   2.9768424285995E+01
(PID.TID 0000.0001) %MON dynstat_salt_mean            =   3.4718001020253E+01
(PID.TID 0000.0001) %MON dynstat_salt_sd              =   2.9441201132102E-01
(PID.TID 0000.0001) %MON dynstat_salt_del2            =   2.6649058680879E-02
(PID.TID 0000.0001) %MON advcfl_uvel_max              =   1.1547851880394E-01
(PID.TID 0000.0001) %MON advcfl_vvel_max              =   5.1205297780298E-02
(PID.TID 0000.0001) %MON advcfl_wvel_max              =   1.1294407998044E-01
(PID.TID 0000.0001) %MON advcfl_W_hf_max              =   1.1294407998044E-01
(PID.TID 0000.0001) %MON pe_b_mean                    =  -7.7297985941173E-03
(PID.TID 0000.0001) %MON ke_max                       =   1.6992295201665E-02
(PID.TID 0000.0001) %MON ke_mean                      =   1.3228114956437E-04
(PID.TID 0000.0001) %MON ke_vol                       =   1.3442141716554E+22
(PID.TID 0000.0001) %MON vort_r_min                   =  -4.8630934415438E-07
(PID.TID 0000.0001) %MON vort_r_max                   =   5.2769280078781E-07
(PID.TID 0000.0001) %MON vort_a_mean                  =  -2.4531015284955E-05
(PID.TID 0000.0001) %MON vort_a_sd                    =   7.3436065615711E-05
(PID.TID 0000.0001) %MON vort_p_mean                  =  -2.9400527410724E-05
(PID.TID 0000.0001) %MON vort_p_sd                    =   1.0337585347520E-04
(PID.TID 0000.0001) %MON surfExpan_theta_mean         =   8.6677522462843E-04
(PID.TID 0000.0001) %MON surfExpan_salt_mean          =   1.2516114121030E-05
(PID.TID 0000.0001) // =======================================================
(PID.TID 0000.0001) // End MONITOR dynamic field statistics
(PID.TID 0000.0001) // =======================================================
time,SST,SSS,fu,fv,Q,E-P,i0,i1,a,b =   2.7648E+06  2.5662E+01  0.0000E+00 -6.1361E-03  2.2585E-02 -8.2175E+01 -5.1109E-09     1     2  6.0000E-01  4.0000E-01
time,fu0,fu1,fu =   2.7648E+06 -8.1474E-03 -4.7952E-03 -6.1361E-03  6.000000000000000E-01  4.000000000000000E-01
 cg2d: Sum(rhs),rhsMax =  -1.11022302462516E-16  1.72993038801909E+02
(PID.TID 0000.0001)                    cg2d_init_res =    2.30544265368851E-03
(PID.TID 0000.0001)                       cg2d_iters =    86
(PID.TID 0000.0001)                         cg2d_res =    9.80729793297083E-10
(PID.TID 0000.0001) // =======================================================
(PID.TID 0000.0001) // Begin MONITOR dynamic field statistics
(PID.TID 0000.0001) // =======================================================
(PID.TID 0000.0001) %MON time_tsnumber                =                    17
(PID.TID 0000.0001) %MON time_secondsf                =   2.9376000000000E+06
(PID.TID 0000.0001) %MON dynstat_eta_max              =   4.8392613248970E+04
(PID.TID 0000.0001) %MON dynstat_eta_min              =  -9.2898670239944E+04
(PID.TID 0000.0001) %MON dynstat_eta_mean             =   0.0000000000000E+00
(PID.TID 0000.0001) %MON dynstat_eta_sd               =   3.9709900889386E+04
(PID.TID 0000.0001) %MON dynstat_eta_del2             =   2.3967310570162E+04
(PID.TID 0000.0001) %MON dynstat_uvel_max             =   1.9076599609027E-01
(PID.TID 0000.0001) %MON dynstat_uvel_min             =  -9.1158646526966E-02
(PID.TID 0000.0001) %MON dynstat_uvel_mean            =   3.4909170550857E-04
(PID.TID 0000.0001) %MON dynstat_uvel_sd              =   1.4133954891025E-02
(PID.TID 0000.0001) %MON dynstat_uvel_del2            =   2.9457571844146E-03
(PID.TID 0000.0001) %MON dynstat_vvel_max             =   9.2144802535049E-02
(PID.TID 0000.0001) %MON dynstat_vvel_min             =  -1.2921725762049E-01
(PID.TID 0000.0001) %MON dynstat_vvel_mean            =  -1.5133711326657E-05
(PID.TID 0000.0001) %MON dynstat_vvel_sd              =   1.0552047755831E-02
(PID.TID 0000.0001) %MON dynstat_vvel_del2            =   3.0593821156802E-03
(PID.TID 0000.0001) %MON dynstat_wvel_max             =   2.8572078023934E+00
(PID.TID 0000.0001) %MON dynstat_wvel_min             =  -1.5801579551756E+00
(PID.TID 0000.0001) %MON dynstat_wvel_mean            =   2.3378152701298E-05
(PID.TID 0000.0001) %MON dynstat_wvel_sd              =   2.1607108924934E-01
(PID.TID 0000.0001) %MON dynstat_wvel_del2            =   9.0378017084917E-02
(PID.TID 0000.0001) %MON dynstat_theta_max            =   2.9990663207085E+01
(PID.TID 0000.0001) %MON dynstat_theta_min            =  -3.2418974439055E+00
(PID.TID 0000.0001) %MON dynstat_theta_mean           =   3.6038393026151E+00
(PID.TID 0000.0001) %MON dynstat_theta_sd             =   4.4035652021235E+00
(PID.TID 0000.0001) %MON dynstat_theta_del2           =   1.4327300122812E-01
(PID.TID 0000.0001) %MON dynstat_salt_max             =   3.7433460473303E+01
(PID.TID 0000.0001) %MON dynstat_salt_min             =   2.9767251779540E+01
(PID.TID 0000.0001) %MON dynstat_salt_mean            =   3.4718000930008E+01
(PID.TID 0000.0001) %MON dynstat_salt_sd              =   2.9441346896679E-01
(PID.TID 0000.0001) %MON dynstat_salt_del2            =   2.6687112943855E-02
(PID.TID 0000.0001) %MON advcfl_uvel_max              =   1.1878432943627E-01
(PID.TID 0000.0001) %MON advcfl_vvel_max              =   5.0209681520008E-02
(PID.TID 0000.0001) %MON advcfl_wvel_max              =   1.0048864181892E-01
(PID.TID 0000.0001) %MON advcfl_W_hf_max              =   1.0048864181892E-01
(PID.TID 0000.0001) %MON pe_b_mean                    =  -7.7029803629736E-03
(PID.TID 0000.0001) %MON ke_max                       =   1.7979331829948E-02
(PID.TID 0000.0001) %MON ke_mean                      =   1.4043211262949E-04
(PID.TID 0000.0001) %MON ke_vol                       =   1.3442141716554E+22
(PID.TID 0000.0001) %MON vort_r_min                   =  -5.1066124493689E-07
(PID.TID 0000.0001) %MON vort_r_max                   =   5.4986161570076E-07
(PID.TID 0000.0001) %MON vort_a_mean                  =  -2.4531015431982E-05
(PID.TID 0000.0001) %MON vort_a_sd                    =   7.3436083560387E-05
(PID.TID 0000.0001) %MON vort_p_mean                  =  -2.9400569132052E-05
(PID.TID 0000.0001) %MON vort_p_sd                    =   1.0337625345891E-04
(PID.TID 0000.0001) %MON surfExpan_theta_mean         =   4.6690467153130E-04
(PID.TID 0000.0001) %MON surfExpan_salt_mean          =   5.0671131834389E-05
(PID.TID 0000.0001) // =======================================================
(PID.TID 0000.0001) // End MONITOR dynamic field statistics
(PID.TID 0000.0001) // =======================================================
time,SST,SSS,fu,fv,Q,E-P,i0,i1,a,b =   2.9376E+06  2.5633E+01  0.0000E+00 -5.9126E-03  2.2430E-02 -8.1082E+01 -5.1109E-09     1     2  6.6667E-01  3.3333E-01
time,fu0,fu1,fu =   2.9376E+06 -8.1474E-03 -4.7952E-03 -5.9126E-03  6.666666666666666E-01  3.333333333333334E-01
 cg2d: Sum(rhs),rhsMax =  -8.60422844084496E-16  1.72989787211614E+02
(PID.TID 0000.0001)                    cg2d_init_res =    2.20659732842916E-03
(PID.TID 0000.0001)                       cg2d_iters =    84
(PID.TID 0000.0001)                         cg2d_res =    8.43518999780713E-10
(PID.TID 0000.0001) // =======================================================
(PID.TID 0000.0001) // Begin MONITOR dynamic field statistics
(PID.TID 0000.0001) // =======================================================
(PID.TID 0000.0001) %MON time_tsnumber                =                    18
(PID.TID 0000.0001) %MON time_secondsf                =   3.1104000000000E+06
(PID.TID 0000.0001) %MON dynstat_eta_max              =   4.8834709160104E+04
(PID.TID 0000.0001) %MON dynstat_eta_min              =  -9.2835312987691E+04
(PID.TID 0000.0001) %MON dynstat_eta_mean             =   4.8266466559617E-12
(PID.TID 0000.0001) %MON dynstat_eta_sd               =   3.9723790338837E+04
(PID.TID 0000.0001) %MON dynstat_eta_del2             =   2.3967134379688E+04
(PID.TID 0000.0001) %MON dynstat_uvel_max             =   1.9673975447701E-01
(PID.TID 0000.0001) %MON dynstat_uvel_min             =  -9.5060295814659E-02
(PID.TID 0000.0001) %MON dynstat_uvel_mean            =   4.6369307683331E-04
(PID.TID 0000.0001) %MON dynstat_uvel_sd              =   1.4870794973287E-02
(PID.TID 0000.0001) %MON dynstat_uvel_del2            =   3.0460007227944E-03
(PID.TID 0000.0001) %MON dynstat_vvel_max             =   9.4736846828002E-02
(PID.TID 0000.0001) %MON dynstat_vvel_min             =  -1.2522320596700E-01
(PID.TID 0000.0001) %MON dynstat_vvel_mean            =  -4.6961710091763E-05
(PID.TID 0000.0001) %MON dynstat_vvel_sd              =   1.0310139098964E-02
(PID.TID 0000.0001) %MON dynstat_vvel_del2            =   3.0532919192356E-03
(PID.TID 0000.0001) %MON dynstat_wvel_max             =   2.9402739398497E+00
(PID.TID 0000.0001) %MON dynstat_wvel_min             =  -1.6422650956121E+00
(PID.TID 0000.0001) %MON dynstat_wvel_mean            =  -8.0546446878205E-06
(PID.TID 0000.0001) %MON dynstat_wvel_sd              =   2.0968525901227E-01
(PID.TID 0000.0001) %MON dynstat_wvel_del2            =   8.9284366780258E-02
(PID.TID 0000.0001) %MON dynstat_theta_max            =   2.9987562890515E+01
(PID.TID 0000.0001) %MON dynstat_theta_min            =  -3.2721038663626E+00
(PID.TID 0000.0001) %MON dynstat_theta_mean           =   3.6039358456770E+00
(PID.TID 0000.0001) %MON dynstat_theta_sd             =   4.4038589121634E+00
(PID.TID 0000.0001) %MON dynstat_theta_del2           =   1.4350138166633E-01
(PID.TID 0000.0001) %MON dynstat_salt_max             =   3.7433866982356E+01
(PID.TID 0000.0001) %MON dynstat_salt_min             =   2.9765952986640E+01
(PID.TID 0000.0001) %MON dynstat_salt_mean            =   3.4718000829455E+01
(PID.TID 0000.0001) %MON dynstat_salt_sd              =   2.9441390245016E-01
(PID.TID 0000.0001) %MON dynstat_salt_del2            =   2.6708416757048E-02
(PID.TID 0000.0001) %MON advcfl_uvel_max              =   1.2370218953181E-01
(PID.TID 0000.0001) %MON advcfl_vvel_max              =   4.8657721161236E-02
(PID.TID 0000.0001) %MON advcfl_wvel_max              =   9.8319007211339E-02
(PID.TID 0000.0001) %MON advcfl_W_hf_max              =   9.8319007211340E-02
(PID.TID 0000.0001) %MON pe_b_mean                    =  -7.7316190362862E-03
(PID.TID 0000.0001) %MON ke_max                       =   1.8840466858948E-02
(PID.TID 0000.0001) %MON ke_mean                      =   1.4789111503344E-04
(PID.TID 0000.0001) %MON ke_vol                       =   1.3442141716554E+22
(PID.TID 0000.0001) %MON vort_r_min                   =  -5.3031559643998E-07
(PID.TID 0000.0001) %MON vort_r_max                   =   5.6700400920587E-07
(PID.TID 0000.0001) %MON vort_a_mean                  =  -2.4531015571469E-05
(PID.TID 0000.0001) %MON vort_a_sd                    =   7.3436104412695E-05
(PID.TID 0000.0001) %MON vort_p_mean                  =  -2.9400602133081E-05
(PID.TID 0000.0001) %MON vort_p_sd                    =   1.0337650181537E-04
(PID.TID 0000.0001) %MON surfExpan_theta_mean         =  -1.3403451639260E-05
(PID.TID 0000.0001) %MON surfExpan_salt_mean          =   8.5154319392117E-05
(PID.TID 0000.0001) // =======================================================
(PID.TID 0000.0001) // End MONITOR dynamic field statistics
(PID.TID 0000.0001) // =======================================================
time,SST,SSS,fu,fv,Q,E-P,i0,i1,a,b =   3.1104E+06  2.5605E+01  0.0000E+00 -5.6891E-03  2.2274E-02 -7.9989E+01 -5.1109E-09     1     2  7.3333E-01  2.6667E-01
time,fu0,fu1,fu =   3.1104E+06 -8.1474E-03 -4.7952E-03 -5.6891E-03  7.333333333333333E-01  2.666666666666667E-01
 cg2d: Sum(rhs),rhsMax =   1.27675647831893E-15  1.72986075645792E+02
(PID.TID 0000.0001)                    cg2d_init_res =    2.18103922779270E-03
(PID.TID 0000.0001)                       cg2d_iters =    87
(PID.TID 0000.0001)                         cg2d_res =    8.56790553983231E-10
(PID.TID 0000.0001) // =======================================================
(PID.TID 0000.0001) // Begin MONITOR dynamic field statistics
(PID.TID 0000.0001) // =======================================================
(PID.TID 0000.0001) %MON time_tsnumber                =                    19
(PID.TID 0000.0001) %MON time_secondsf                =   3.2832000000000E+06
(PID.TID 0000.0001) %MON dynstat_eta_max              =   4.8224175050283E+04
(PID.TID 0000.0001) %MON dynstat_eta_min              =  -9.2712385891843E+04
(PID.TID 0000.0001) %MON dynstat_eta_mean             =  -3.9490745366959E-12
(PID.TID 0000.0001) %MON dynstat_eta_sd               =   3.9703044652651E+04
(PID.TID 0000.0001) %MON dynstat_eta_del2             =   2.3966248324480E+04
(PID.TID 0000.0001) %MON dynstat_uvel_max             =   2.0110464106750E-01
(PID.TID 0000.0001) %MON dynstat_uvel_min             =  -9.8447340628617E-02
(PID.TID 0000.0001) %MON dynstat_uvel_mean            =   5.6926940826160E-04
(PID.TID 0000.0001) %MON dynstat_uvel_sd              =   1.5524830250200E-02
(PID.TID 0000.0001) %MON dynstat_uvel_del2            =   3.1435124516967E-03
(PID.TID 0000.0001) %MON dynstat_vvel_max             =   9.6880689076905E-02
(PID.TID 0000.0001) %MON dynstat_vvel_min             =  -1.1986109068388E-01
(PID.TID 0000.0001) %MON dynstat_vvel_mean            =  -6.3727305004132E-05
(PID.TID 0000.0001) %MON dynstat_vvel_sd              =   1.0056022327644E-02
(PID.TID 0000.0001) %MON dynstat_vvel_del2            =   3.0513379491734E-03
(PID.TID 0000.0001) %MON dynstat_wvel_max             =   3.0108410662181E+00
(PID.TID 0000.0001) %MON dynstat_wvel_min             =  -1.7723669892721E+00
(PID.TID 0000.0001) %MON dynstat_wvel_mean            =  -3.4981155669767E-05
(PID.TID 0000.0001) %MON dynstat_wvel_sd              =   2.0415294656456E-01
(PID.TID 0000.0001) %MON dynstat_wvel_del2            =   8.8714576176760E-02
(PID.TID 0000.0001) %MON dynstat_theta_max            =   2.9979730671674E+01
(PID.TID 0000.0001) %MON dynstat_theta_min            =  -3.2978793162595E+00
(PID.TID 0000.0001) %MON dynstat_theta_mean           =   3.6040336947150E+00
(PID.TID 0000.0001) %MON dynstat_theta_sd             =   4.4041721465626E+00
(PID.TID 0000.0001) %MON dynstat_theta_del2           =   1.4382682144254E-01
(PID.TID 0000.0001) %MON dynstat_salt_max             =   3.7434407290744E+01
(PID.TID 0000.0001) %MON dynstat_salt_min             =   2.9764496419046E+01
(PID.TID 0000.0001) %MON dynstat_salt_mean            =   3.4718000738390E+01
(PID.TID 0000.0001) %MON dynstat_salt_sd              =   2.9441595884508E-01
(PID.TID 0000.0001) %MON dynstat_salt_del2            =   2.6751215017070E-02
(PID.TID 0000.0001) %MON advcfl_uvel_max              =   1.2742127293612E-01
(PID.TID 0000.0001) %MON advcfl_vvel_max              =   4.6574175158197E-02
(PID.TID 0000.0001) %MON advcfl_wvel_max              =   9.7952837392104E-02
(PID.TID 0000.0001) %MON advcfl_W_hf_max              =   9.7952837392104E-02
(PID.TID 0000.0001) %MON pe_b_mean                    =  -7.8068242225926E-03
(PID.TID 0000.0001) %MON ke_max                       =   1.9573332707649E-02
(PID.TID 0000.0001) %MON ke_mean                      =   1.5462398274734E-04
(PID.TID 0000.0001) %MON ke_vol                       =   1.3442141716554E+22
(PID.TID 0000.0001) %MON vort_r_min                   =  -5.4491632587870E-07
(PID.TID 0000.0001) %MON vort_r_max                   =   5.7991372975350E-07
(PID.TID 0000.0001) %MON vort_a_mean                  =  -2.4531015679779E-05
(PID.TID 0000.0001) %MON vort_a_sd                    =   7.3436123400817E-05
(PID.TID 0000.0001) %MON vort_p_mean                  =  -2.9400621931799E-05
(PID.TID 0000.0001) %MON vort_p_sd                    =   1.0337656006908E-04
(PID.TID 0000.0001) %MON surfExpan_theta_mean         =  -3.6275795881780E-04
(PID.TID 0000.0001) %MON surfExpan_salt_mean          =   1.1040600789452E-04
(PID.TID 0000.0001) // =======================================================
(PID.TID 0000.0001) // End MONITOR dynamic field statistics
(PID.TID 0000.0001) // =======================================================
time,SST,SSS,fu,fv,Q,E-P,i0,i1,a,b =   3.2832E+06  2.5576E+01  0.0000E+00 -5.4656E-03  2.2119E-02 -7.8896E+01 -5.1109E-09     1     2  8.0000E-01  2.0000E-01
time,fu0,fu1,fu =   3.2832E+06 -8.1474E-03 -4.7952E-03 -5.4656E-03  8.000000000000000E-01  2.000000000000000E-01
 cg2d: Sum(rhs),rhsMax =   4.44089209850063E-16  1.72981585678772E+02
(PID.TID 0000.0001)                    cg2d_init_res =    2.20680675289392E-03
(PID.TID 0000.0001)                       cg2d_iters =    88
(PID.TID 0000.0001)                         cg2d_res =    8.51066463155024E-10
(PID.TID 0000.0001) // =======================================================
(PID.TID 0000.0001) // Begin MONITOR dynamic field statistics
(PID.TID 0000.0001) // =======================================================
(PID.TID 0000.0001) %MON time_tsnumber                =                    20
(PID.TID 0000.0001) %MON time_secondsf                =   3.4560000000000E+06
(PID.TID 0000.0001) %MON dynstat_eta_max              =   4.6918767000024E+04
(PID.TID 0000.0001) %MON dynstat_eta_min              =  -9.2591939046561E+04
(PID.TID 0000.0001) %MON dynstat_eta_mean             =  -4.8266466559617E-12
(PID.TID 0000.0001) %MON dynstat_eta_sd               =   3.9661612495515E+04
(PID.TID 0000.0001) %MON dynstat_eta_del2             =   2.3964943257872E+04
(PID.TID 0000.0001) %MON dynstat_uvel_max             =   2.0380462155470E-01
(PID.TID 0000.0001) %MON dynstat_uvel_min             =  -1.0119233938986E-01
(PID.TID 0000.0001) %MON dynstat_uvel_mean            =   6.5144400491995E-04
(PID.TID 0000.0001) %MON dynstat_uvel_sd              =   1.6087232811141E-02
(PID.TID 0000.0001) %MON dynstat_uvel_del2            =   3.2341096951259E-03
(PID.TID 0000.0001) %MON dynstat_vvel_max             =   9.8625588295354E-02
(PID.TID 0000.0001) %MON dynstat_vvel_min             =  -1.1322429737395E-01
(PID.TID 0000.0001) %MON dynstat_vvel_mean            =  -5.8043667325030E-05
(PID.TID 0000.0001) %MON dynstat_vvel_sd              =   9.8148690675400E-03
(PID.TID 0000.0001) %MON dynstat_vvel_del2            =   3.0584093814546E-03
(PID.TID 0000.0001) %MON dynstat_wvel_max             =   3.0684128022760E+00
(PID.TID 0000.0001) %MON dynstat_wvel_min             =  -1.8893959232316E+00
(PID.TID 0000.0001) %MON dynstat_wvel_mean            =  -6.2946350400032E-05
(PID.TID 0000.0001) %MON dynstat_wvel_sd              =   1.9981037651660E-01
(PID.TID 0000.0001) %MON dynstat_wvel_del2            =   8.8539248068267E-02
(PID.TID 0000.0001) %MON dynstat_theta_max            =   2.9967148769416E+01
(PID.TID 0000.0001) %MON dynstat_theta_min            =  -3.3192710370618E+00
(PID.TID 0000.0001) %MON dynstat_theta_mean           =   3.6041327766822E+00
(PID.TID 0000.0001) %MON dynstat_theta_sd             =   4.4045043976961E+00
(PID.TID 0000.0001) %MON dynstat_theta_del2           =   1.4394231229556E-01
(PID.TID 0000.0001) %MON dynstat_salt_max             =   3.7435274084636E+01
(PID.TID 0000.0001) %MON dynstat_salt_min             =   2.9762877389872E+01
(PID.TID 0000.0001) %MON dynstat_salt_mean            =   3.4718000671587E+01
(PID.TID 0000.0001) %MON dynstat_salt_sd              =   2.9441587681636E-01
(PID.TID 0000.0001) %MON dynstat_salt_del2            =   2.6780476391810E-02
(PID.TID 0000.0001) %MON advcfl_uvel_max              =   1.2984309063413E-01
(PID.TID 0000.0001) %MON advcfl_vvel_max              =   4.3995330160694E-02
(PID.TID 0000.0001) %MON advcfl_wvel_max              =   9.7215541665683E-02
(PID.TID 0000.0001) %MON advcfl_W_hf_max              =   9.7215541665683E-02
(PID.TID 0000.0001) %MON pe_b_mean                    =  -7.9129344632234E-03
(PID.TID 0000.0001) %MON ke_max                       =   2.0295590776225E-02
(PID.TID 0000.0001) %MON ke_mean                      =   1.6057220776801E-04
(PID.TID 0000.0001) %MON ke_vol                       =   1.3442141716554E+22
(PID.TID 0000.0001) %MON vort_r_min                   =  -5.5421269946243E-07
(PID.TID 0000.0001) %MON vort_r_max                   =   5.8934793658061E-07
(PID.TID 0000.0001) %MON vort_a_mean                  =  -2.4531015741700E-05
(PID.TID 0000.0001) %MON vort_a_sd                    =   7.3436137402244E-05
(PID.TID 0000.0001) %MON vort_p_mean                  =  -2.9400628693955E-05
(PID.TID 0000.0001) %MON vort_p_sd                    =   1.0337644897564E-04
(PID.TID 0000.0001) %MON surfExpan_theta_mean         =  -4.5391320000489E-04
(PID.TID 0000.0001) %MON surfExpan_salt_mean          =   1.2289090439058E-04
(PID.TID 0000.0001) // =======================================================
(PID.TID 0000.0001) // End MONITOR dynamic field statistics
(PID.TID 0000.0001) // =======================================================
(PID.TID 0000.0001) %CHECKPOINT        20 ckptA
(PID.TID 0000.0001)   Seconds in section "ALL                    [THE_MODEL_MAIN]":
(PID.TID 0000.0001)           User time:  20.5578754
(PID.TID 0000.0001)         System time:  0.193970999
(PID.TID 0000.0001)     Wall clock time:  21.6759009
(PID.TID 0000.0001)          No. starts: 1
(PID.TID 0000.0001)           No. stops: 1
(PID.TID 0000.0001)   Seconds in section "INITIALISE_FIXED       [THE_MODEL_MAIN]":
(PID.TID 0000.0001)           User time:  0.169973994
(PID.TID 0000.0001)         System time:  0.0489930008
(PID.TID 0000.0001)     Wall clock time:  0.316488028
(PID.TID 0000.0001)          No. starts: 1
(PID.TID 0000.0001)           No. stops: 1
(PID.TID 0000.0001)   Seconds in section "THE_MAIN_LOOP          [THE_MODEL_MAIN]":
(PID.TID 0000.0001)           User time:  20.2679196
(PID.TID 0000.0001)         System time:  0.115981992
(PID.TID 0000.0001)     Wall clock time:  20.9047818
(PID.TID 0000.0001)          No. starts: 1
(PID.TID 0000.0001)           No. stops: 1
(PID.TID 0000.0001)   Seconds in section "INITIALISE_VARIA    [THE_MAIN_LOOP]":
(PID.TID 0000.0001)           User time:  0.232964993
(PID.TID 0000.0001)         System time:  0.0339949988
(PID.TID 0000.0001)     Wall clock time:  0.416195869
(PID.TID 0000.0001)          No. starts: 1
(PID.TID 0000.0001)           No. stops: 1
(PID.TID 0000.0001)   Seconds in section "MONITOR             [THE_MAIN_LOOP]":
(PID.TID 0000.0001)           User time:  0.09998402
(PID.TID 0000.0001)         System time:  0.
(PID.TID 0000.0001)     Wall clock time:  0.100202084
(PID.TID 0000.0001)          No. starts: 1
(PID.TID 0000.0001)           No. stops: 1
(PID.TID 0000.0001)   Seconds in section "DO_THE_MODEL_IO     [THE_MAIN_LOOP]":
(PID.TID 0000.0001)           User time:  0.0609909892
(PID.TID 0000.0001)         System time:  0.0349939987
(PID.TID 0000.0001)     Wall clock time:  0.246989965
(PID.TID 0000.0001)          No. starts: 1
(PID.TID 0000.0001)           No. stops: 1
(PID.TID 0000.0001)   Seconds in section "MAIN LOOP           [THE_MAIN_LOOP]":
(PID.TID 0000.0001)           User time:  19.8739796
(PID.TID 0000.0001)         System time:  0.0469929948
(PID.TID 0000.0001)     Wall clock time:  20.1412008
(PID.TID 0000.0001)          No. starts: 1
(PID.TID 0000.0001)           No. stops: 1
(PID.TID 0000.0001)   Seconds in section "FORWARD_STEP        [THE_MAIN_LOOP]":
(PID.TID 0000.0001)           User time:  19.8729802
(PID.TID 0000.0001)         System time:  0.0469929948
(PID.TID 0000.0001)     Wall clock time:  20.1404493
(PID.TID 0000.0001)          No. starts: 20
(PID.TID 0000.0001)           No. stops: 20
(PID.TID 0000.0001)   Seconds in section "EXTERNAL_FIELDS_LOAD[FORWARD_STEP]":
(PID.TID 0000.0001)           User time:  0.0549955368
(PID.TID 0000.0001)         System time:  0.00299999118
(PID.TID 0000.0001)     Wall clock time:  0.120646238
(PID.TID 0000.0001)          No. starts: 20
(PID.TID 0000.0001)           No. stops: 20
(PID.TID 0000.0001)   Seconds in section "DO_ATMOSPHERIC_PHYS [FORWARD_STEP]":
(PID.TID 0000.0001)           User time:  0.
(PID.TID 0000.0001)         System time:  0.
(PID.TID 0000.0001)     Wall clock time:  0.000699996948
(PID.TID 0000.0001)          No. starts: 20
(PID.TID 0000.0001)           No. stops: 20
(PID.TID 0000.0001)   Seconds in section "DO_OCEANIC_PHYS     [FORWARD_STEP]":
(PID.TID 0000.0001)           User time:  1.54276139
(PID.TID 0000.0001)         System time:  0.
(PID.TID 0000.0001)     Wall clock time:  1.54333067
(PID.TID 0000.0001)          No. starts: 20
(PID.TID 0000.0001)           No. stops: 20
(PID.TID 0000.0001)   Seconds in section "THERMODYNAMICS      [FORWARD_STEP]":
(PID.TID 0000.0001)           User time:  3.64544451
(PID.TID 0000.0001)         System time:  0.0119980052
(PID.TID 0000.0001)     Wall clock time:  3.65751767
(PID.TID 0000.0001)          No. starts: 20
(PID.TID 0000.0001)           No. stops: 20
(PID.TID 0000.0001)   Seconds in section "DYNAMICS            [FORWARD_STEP]":
(PID.TID 0000.0001)           User time:  6.46602142
(PID.TID 0000.0001)         System time:  0.00199998915
(PID.TID 0000.0001)     Wall clock time:  6.4685142
(PID.TID 0000.0001)          No. starts: 20
(PID.TID 0000.0001)           No. stops: 20
(PID.TID 0000.0001)   Seconds in section "UPDATE_SURF_DR     [FORWARD_STEP]":
(PID.TID 0000.0001)           User time:  0.0199973583
(PID.TID 0000.0001)         System time:  0.
(PID.TID 0000.0001)     Wall clock time:  0.0202825069
(PID.TID 0000.0001)          No. starts: 20
(PID.TID 0000.0001)           No. stops: 20
(PID.TID 0000.0001)   Seconds in section "UPDATE_CG2D        [FORWARD_STEP]":
(PID.TID 0000.0001)           User time:  0.160971284
(PID.TID 0000.0001)         System time:  0.
(PID.TID 0000.0001)     Wall clock time:  0.161727905
(PID.TID 0000.0001)          No. starts: 20
(PID.TID 0000.0001)           No. stops: 20
(PID.TID 0000.0001)   Seconds in section "SOLVE_FOR_PRESSURE  [FORWARD_STEP]":
(PID.TID 0000.0001)           User time:  3.79842603
(PID.TID 0000.0001)         System time:  0.00100000203
(PID.TID 0000.0001)     Wall clock time:  3.80373049
(PID.TID 0000.0001)          No. starts: 20
(PID.TID 0000.0001)           No. stops: 20
(PID.TID 0000.0001)   Seconds in section "UV_CORRECTION_STEP  [FORWARD_STEP]":
(PID.TID 0000.0001)           User time:  0.437928677
(PID.TID 0000.0001)         System time:  0.
(PID.TID 0000.0001)     Wall clock time:  0.435786009
(PID.TID 0000.0001)          No. starts: 20
(PID.TID 0000.0001)           No. stops: 20
(PID.TID 0000.0001)   Seconds in section "UPDATE_ETAH        [FORWARD_STEP]":
(PID.TID 0000.0001)           User time:  0.00200176239
(PID.TID 0000.0001)         System time:  0.
(PID.TID 0000.0001)     Wall clock time:  0.00495100021
(PID.TID 0000.0001)          No. starts: 20
(PID.TID 0000.0001)           No. stops: 20
(PID.TID 0000.0001)   Seconds in section "CALC_SURF_DR      [FORWARD_STEP]":
(PID.TID 0000.0001)           User time:  0.0319949389
(PID.TID 0000.0001)         System time:  0.
(PID.TID 0000.0001)     Wall clock time:  0.0308349133
(PID.TID 0000.0001)          No. starts: 20
(PID.TID 0000.0001)           No. stops: 20
(PID.TID 0000.0001)   Seconds in section "TS_CORRECTION_STEP  [FORWARD_STEP]":
(PID.TID 0000.0001)           User time:  0.0789935589
(PID.TID 0000.0001)         System time:  0.
(PID.TID 0000.0001)     Wall clock time:  0.0780222416
(PID.TID 0000.0001)          No. starts: 20
(PID.TID 0000.0001)           No. stops: 20
(PID.TID 0000.0001)   Seconds in section "BLOCKING_EXCHANGES  [FORWARD_STEP]":
(PID.TID 0000.0001)           User time:  0.0959848166
(PID.TID 0000.0001)         System time:  0.
(PID.TID 0000.0001)     Wall clock time:  0.0974562168
(PID.TID 0000.0001)          No. starts: 20
(PID.TID 0000.0001)           No. stops: 20
(PID.TID 0000.0001)   Seconds in section "DO_STATEVARS_TAVE   [FORWARD_STEP]":
(PID.TID 0000.0001)           User time:  1.42977965
(PID.TID 0000.0001)         System time:  0.
(PID.TID 0000.0001)     Wall clock time:  1.43207502
(PID.TID 0000.0001)          No. starts: 20
(PID.TID 0000.0001)           No. stops: 20
(PID.TID 0000.0001)   Seconds in section "MONITOR             [FORWARD_STEP]":
(PID.TID 0000.0001)           User time:  2.00769627
(PID.TID 0000.0001)         System time:  0.00199900568
(PID.TID 0000.0001)     Wall clock time:  2.00919127
(PID.TID 0000.0001)          No. starts: 20
(PID.TID 0000.0001)           No. stops: 20
(PID.TID 0000.0001)   Seconds in section "DO_THE_MODEL_IO     [FORWARD_STEP]":
(PID.TID 0000.0001)           User time:  0.0879859924
(PID.TID 0000.0001)         System time:  0.0239959955
(PID.TID 0000.0001)     Wall clock time:  0.261898041
(PID.TID 0000.0001)          No. starts: 20
(PID.TID 0000.0001)           No. stops: 20
(PID.TID 0000.0001)   Seconds in section "WRITE_CHECKPOINT    [FORWARD_STEP]":
(PID.TID 0000.0001)           User time:  0.000999927521
(PID.TID 0000.0001)         System time:  0.
(PID.TID 0000.0001)     Wall clock time:  0.00074505806
(PID.TID 0000.0001)          No. starts: 20
(PID.TID 0000.0001)           No. stops: 20
(PID.TID 0000.0001)   Seconds in section "WRITE_CHECKPOINT       [THE_MODEL_MAIN]":
(PID.TID 0000.0001)           User time:  0.119981766
(PID.TID 0000.0001)         System time:  0.0289960057
(PID.TID 0000.0001)     Wall clock time:  0.454455853
(PID.TID 0000.0001)          No. starts: 1
(PID.TID 0000.0001)           No. stops: 1
(PID.TID 0000.0001) // ======================================================
(PID.TID 0000.0001) // Tile <-> Tile communication statistics
(PID.TID 0000.0001) // ======================================================
(PID.TID 0000.0001) // o Tile number: 000001
(PID.TID 0000.0001) //         No. X exchanges =              0
(PID.TID 0000.0001) //            Max. X spins =              0
(PID.TID 0000.0001) //            Min. X spins =     1000000000
(PID.TID 0000.0001) //          Total. X spins =              0
(PID.TID 0000.0001) //            Avg. X spins =       0.00E+00
(PID.TID 0000.0001) //         No. Y exchanges =              0
(PID.TID 0000.0001) //            Max. Y spins =              0
(PID.TID 0000.0001) //            Min. Y spins =     1000000000
(PID.TID 0000.0001) //          Total. Y spins =              0
(PID.TID 0000.0001) //            Avg. Y spins =       0.00E+00
(PID.TID 0000.0001) // o Tile number: 000002
(PID.TID 0000.0001) //         No. X exchanges =              0
(PID.TID 0000.0001) //            Max. X spins =              0
(PID.TID 0000.0001) //            Min. X spins =     1000000000
(PID.TID 0000.0001) //          Total. X spins =              0
(PID.TID 0000.0001) //            Avg. X spins =       0.00E+00
(PID.TID 0000.0001) //         No. Y exchanges =              0
(PID.TID 0000.0001) //            Max. Y spins =              0
(PID.TID 0000.0001) //            Min. Y spins =     1000000000
(PID.TID 0000.0001) //          Total. Y spins =              0
(PID.TID 0000.0001) //            Avg. Y spins =       0.00E+00
(PID.TID 0000.0001) // o Thread number: 000001
(PID.TID 0000.0001) //            No. barriers =          28874
(PID.TID 0000.0001) //      Max. barrier spins =              1
(PID.TID 0000.0001) //      Min. barrier spins =              1
(PID.TID 0000.0001) //     Total barrier spins =          28874
(PID.TID 0000.0001) //      Avg. barrier spins =       1.00E+00
