(PID.TID 0000.0001) 
(PID.TID 0000.0001) // ======================================================
(PID.TID 0000.0001) //                      MITgcm UV
(PID.TID 0000.0001) //                      =========
(PID.TID 0000.0001) // ======================================================
(PID.TID 0000.0001) // execution environment starting up...
(PID.TID 0000.0001) 
(PID.TID 0000.0001) // MITgcmUV version:  checkpoint57n_post
(PID.TID 0000.0001) // Build user:        jmc
(PID.TID 0000.0001) // Build host:        faulks
(PID.TID 0000.0001) // Build date:        Fri Jul 29 17:37:19 EDT 2005
(PID.TID 0000.0001) 
(PID.TID 0000.0001) // =======================================================
(PID.TID 0000.0001) // Execution Environment parameter file "eedata"
(PID.TID 0000.0001) // =======================================================
(PID.TID 0000.0001) ># Example "eedata" file
(PID.TID 0000.0001) ># Lines beginning "#" are comments
(PID.TID 0000.0001) ># nTx - No. threads per process in X
(PID.TID 0000.0001) ># nTy - No. threads per process in Y
(PID.TID 0000.0001) > &EEPARMS
(PID.TID 0000.0001) > nTx=1,nTy=1
(PID.TID 0000.0001) > /
(PID.TID 0000.0001) ># Note: Some systems use & as the
(PID.TID 0000.0001) ># namelist terminator. Other systems
(PID.TID 0000.0001) ># use a / character (as shown here).
(PID.TID 0000.0001) 
(PID.TID 0000.0001) // =======================================================
(PID.TID 0000.0001) // Computational Grid Specification ( see files "SIZE.h" )
(PID.TID 0000.0001) //                                  ( and "eedata"       )
(PID.TID 0000.0001) // =======================================================
(PID.TID 0000.0001)      nPx =    1 ; /* No. processes in X */
(PID.TID 0000.0001)      nPy =    1 ; /* No. processes in Y */
(PID.TID 0000.0001)      nSx =    1 ; /* No. tiles in X per process */
(PID.TID 0000.0001)      nSy =    1 ; /* No. tiles in Y per process */
(PID.TID 0000.0001)      sNx =   31 ; /* Tile size in X */
(PID.TID 0000.0001)      sNy =   31 ; /* Tile size in Y */
(PID.TID 0000.0001)      OLx =    3 ; /* Tile overlap distance in X */
(PID.TID 0000.0001)      OLy =    3 ; /* Tile overlap distance in Y */
(PID.TID 0000.0001)      nTx =    1 ; /* No. threads in X per process */
(PID.TID 0000.0001)      nTy =    1 ; /* No. threads in Y per process */
(PID.TID 0000.0001)       Nr =    1 ; /* No. levels in the vertical   */
(PID.TID 0000.0001)       nX =   31 ; /* Total domain size in X ( = nPx*nSx*sNx ) */
(PID.TID 0000.0001)       nY =   31 ; /* Total domain size in Y ( = nPy*nSy*sNy ) */
(PID.TID 0000.0001)   nTiles =    1 ; /* Total no. tiles per process ( = nSx*nSy ) */
(PID.TID 0000.0001)   nProcs =    1 ; /* Total no. processes ( = nPx*nPy ) */
(PID.TID 0000.0001) nThreads =    1 ; /* Total no. threads per process ( = nTx*nTy ) */
(PID.TID 0000.0001) usingMPI =    F ; /* Flag used to control whether MPI is in use */
(PID.TID 0000.0001)                   /*  note: To execute a program with MPI calls */
(PID.TID 0000.0001)                   /*  it must be launched appropriately e.g     */
(PID.TID 0000.0001)                   /*  "mpirun -np 64 ......"                    */
(PID.TID 0000.0001) useCoupler=   F ; /* Flag used to control communications with */
(PID.TID 0000.0001)                   /*  other model components, through a coupler */
(PID.TID 0000.0001) 
(PID.TID 0000.0001) // ======================================================
(PID.TID 0000.0001) // Mapping of tiles to threads
(PID.TID 0000.0001) // ======================================================
(PID.TID 0000.0001) // -o- Thread   1, tiles (   1:   1,   1:   1)
(PID.TID 0000.0001) 
(PID.TID 0000.0001) // ======================================================
(PID.TID 0000.0001) // Tile <-> Tile connectvity table
(PID.TID 0000.0001) // ======================================================
(PID.TID 0000.0001) // Tile number: 000001 (process no. = 000001)
(PID.TID 0000.0001) //        WEST: Tile = 000001, Process = 000001, Comm = put
(PID.TID 0000.0001) //                bi = 000001, bj = 000001
(PID.TID 0000.0001) //        EAST: Tile = 000001, Process = 000001, Comm = put
(PID.TID 0000.0001) //                bi = 000001, bj = 000001
(PID.TID 0000.0001) //       SOUTH: Tile = 000001, Process = 000001, Comm = put
(PID.TID 0000.0001) //                bi = 000001, bj = 000001
(PID.TID 0000.0001) //       NORTH: Tile = 000001, Process = 000001, Comm = put
(PID.TID 0000.0001) //                bi = 000001, bj = 000001
(PID.TID 0000.0001) 
(PID.TID 0000.0001) // =======================================================
(PID.TID 0000.0001) // Model parameter file "data"
(PID.TID 0000.0001) // =======================================================
(PID.TID 0000.0001) ># ====================
(PID.TID 0000.0001) ># | Model parameters |
(PID.TID 0000.0001) ># ====================
(PID.TID 0000.0001) >#
(PID.TID 0000.0001) ># Continuous equation parameters
(PID.TID 0000.0001) > &PARM01
(PID.TID 0000.0001) > tRef=20.,
(PID.TID 0000.0001) > sRef=10.,
(PID.TID 0000.0001) > viscAr=1.E-2,
(PID.TID 0000.0001) > viscAh=5.E3,
(PID.TID 0000.0001) > diffKhT=5.E3,
(PID.TID 0000.0001) > diffKrT=1.E-2,
(PID.TID 0000.0001) ># diffKhS=0.E3,
(PID.TID 0000.0001) ># diffKrS=1.E-5,
(PID.TID 0000.0001) > rhonil=1035.,
(PID.TID 0000.0001) > gravity=9.81,
(PID.TID 0000.0001) > eosType='LINEAR',
(PID.TID 0000.0001) ># ivdc_kappa=50.,
(PID.TID 0000.0001) ># implicitViscosity=.TRUE.,
(PID.TID 0000.0001) ># implicitDiffusion=.TRUE.,
(PID.TID 0000.0001) ># useOldFreezing=.TRUE.,
(PID.TID 0000.0001) > useCDscheme=.FALSE.,
(PID.TID 0000.0001) ># useNHMTerms=.TRUE.,
(PID.TID 0000.0001) ># turn on looped cells
(PID.TID 0000.0001) ># hFacMin=.2,
(PID.TID 0000.0001) ># hFacMindr=50.,
(PID.TID 0000.0001) ># set precision of data files
(PID.TID 0000.0001) ># readBinaryPrec=32,
(PID.TID 0000.0001) > globalFiles=.TRUE.,
(PID.TID 0000.0001) > useSingleCpuIO=.TRUE.
(PID.TID 0000.0001) > beta=1.E-11,
(PID.TID 0000.0001) ># f0=1.e-4,
(PID.TID 0000.0001) > tAlpha=2.E-4,
(PID.TID 0000.0001) > sBeta =0.E-4,
(PID.TID 0000.0001) ># gBaro=9.81,
(PID.TID 0000.0001) > rigidLid=.FALSE.,
(PID.TID 0000.0001) > implicitFreeSurface=.TRUE.,
(PID.TID 0000.0001) ># tempAdvScheme       = 2
(PID.TID 0000.0001) ># saltAdvScheme       = 2
(PID.TID 0000.0001) > writeBinaryPrec=64,
(PID.TID 0000.0001) > multiDimAdvection   = .TRUE.
(PID.TID 0000.0001) > /
(PID.TID 0000.0001) >
(PID.TID 0000.0001) ># Elliptic solver parameters
(PID.TID 0000.0001) > &PARM02
(PID.TID 0000.0001) > cg2dMaxIters=1000,
(PID.TID 0000.0001) > cg2dTargetResidual=1.E-7,
(PID.TID 0000.0001) > /
(PID.TID 0000.0001) >
(PID.TID 0000.0001) ># Time stepping parameters
(PID.TID 0000.0001) > &PARM03
(PID.TID 0000.0001) >#startTime = 0.,
(PID.TID 0000.0001) > nIter0  = 200000,
(PID.TID 0000.0001) > nTimeSteps = 10,
(PID.TID 0000.0001) > deltaTmom = 20000.0,
(PID.TID 0000.0001) ># tauCD = 172800.,
(PID.TID 0000.0001) > deltaTtracer = 20000.0,
(PID.TID 0000.0001) > deltaTClock = 20000.0,
(PID.TID 0000.0001) > abEps = 0.1,
(PID.TID 0000.0001) >#cAdjFreq = -1,
(PID.TID 0000.0001) > pChkptFreq= 500000000.0,
(PID.TID 0000.0001) > dumpFreq=   200000000.0,
(PID.TID 0000.0001) > taveFreq=   0.,
(PID.TID 0000.0001) ># taveDumpFreq=155520000.,
(PID.TID 0000.0001) > monitorFreq=2.,
(PID.TID 0000.0001) ># tauThetaClimRelax = 864000.0,
(PID.TID 0000.0001) ># tauSaltClimRelax = 0.0,
(PID.TID 0000.0001) ># periodicExternalForcing=.FALSE.,
(PID.TID 0000.0001) > /
(PID.TID 0000.0001) >
(PID.TID 0000.0001) ># Gridding parameters
(PID.TID 0000.0001) > &PARM04
(PID.TID 0000.0001) > usingCartesianGrid=.TRUE.,
(PID.TID 0000.0001) > usingSphericalPolarGrid=.FALSE.,
(PID.TID 0000.0001) > delX=31*50E3,
(PID.TID 0000.0001) > delY=31*50E3,
(PID.TID 0000.0001) > delR=5000.,
(PID.TID 0000.0001) ># phiMin=0.,
(PID.TID 0000.0001) > /
(PID.TID 0000.0001) >
(PID.TID 0000.0001) ># Input datasets
(PID.TID 0000.0001) > &PARM05
(PID.TID 0000.0001) > bathyFile='topog.box',
(PID.TID 0000.0001) > hydrogThetaFile=,
(PID.TID 0000.0001) > hydrogSaltFile=,
(PID.TID 0000.0001) > zonalWindFile='windx.cos_y',
(PID.TID 0000.0001) > meridWindFile=,
(PID.TID 0000.0001) > thetaClimFile=,
(PID.TID 0000.0001) > saltClimFile=,
(PID.TID 0000.0001) > /
(PID.TID 0000.0001) 
(PID.TID 0000.0001) S/R INI_PARMS ; starts to read PARM01
(PID.TID 0000.0001) S/R INI_PARMS ; read PARM01 : OK
(PID.TID 0000.0001) S/R INI_PARMS ; starts to read PARM02
(PID.TID 0000.0001) S/R INI_PARMS ; read PARM02 : OK
(PID.TID 0000.0001) S/R INI_PARMS ; starts to read PARM03
(PID.TID 0000.0001) S/R INI_PARMS ; read PARM03 : OK
(PID.TID 0000.0001) S/R INI_PARMS ; starts to read PARM04
(PID.TID 0000.0001) S/R INI_PARMS ; read PARM04 : OK
(PID.TID 0000.0001) S/R INI_PARMS ; starts to read PARM05
(PID.TID 0000.0001) S/R INI_PARMS ; read PARM05 : OK
(PID.TID 0000.0001)  PACKAGES_BOOT: opening data.pkg
(PID.TID 0000.0001)  OPEN_COPY_DATA_FILE: opening file data.pkg
(PID.TID 0000.0001) // =======================================================
(PID.TID 0000.0001) // Parameter file "data.pkg"
(PID.TID 0000.0001) // =======================================================
(PID.TID 0000.0001) ># Packages
(PID.TID 0000.0001) > &PACKAGES
(PID.TID 0000.0001) > usePTRACERS=.TRUE.
(PID.TID 0000.0001) > useMATRIX=.TRUE.
(PID.TID 0000.0001) > /
(PID.TID 0000.0001) >
(PID.TID 0000.0001) 
(PID.TID 0000.0001)  PACKAGES_BOOT: finished reading data.pkg
(PID.TID 0000.0001)  PTRACERS_READPARMS: opening data.ptracers
(PID.TID 0000.0001)  OPEN_COPY_DATA_FILE: opening file data.ptracers
(PID.TID 0000.0001) // =======================================================
(PID.TID 0000.0001) // Parameter file "data.ptracers"
(PID.TID 0000.0001) // =======================================================
(PID.TID 0000.0001) > &PTRACERS_PARM01
(PID.TID 0000.0001) > PTRACERS_numInUse=1,
(PID.TID 0000.0001) > PTRACERS_Iter0=200000,
(PID.TID 0000.0001) > PTRACERS_dumpFreq=0.,
(PID.TID 0000.0001) > PTRACERS_taveFreq=0.,
(PID.TID 0000.0001) > PTRACERS_monitorFreq=0.,
(PID.TID 0000.0001) ># tracer 1
(PID.TID 0000.0001) > PTRACERS_advScheme(1)=30,
(PID.TID 0000.0001) > PTRACERS_diffKh(1)=5.E3,
(PID.TID 0000.0001) > PTRACERS_diffKr(1)=5.E-5,
(PID.TID 0000.0001) > PTRACERS_initialFile(1)='trinit1',
(PID.TID 0000.0001) > /
(PID.TID 0000.0001) >
(PID.TID 0000.0001) 
(PID.TID 0000.0001)  PTRACERS_READPARMS: finished reading data.ptracers
(PID.TID 0000.0001) // ===================================
(PID.TID 0000.0001) // PTRACERS parameters
(PID.TID 0000.0001) // ===================================
(PID.TID 0000.0001) PTRACERS_numInUse = /* number of tracers */
(PID.TID 0000.0001)                       1
(PID.TID 0000.0001)     ;
(PID.TID 0000.0001) PTRACERS_Iter0 = /* timestep number when tracers are initialized */
(PID.TID 0000.0001)                  200000
(PID.TID 0000.0001)     ;
(PID.TID 0000.0001) PTRACERS_dumpFreq = /* Frequency^-1 for snapshot output (s) */
(PID.TID 0000.0001)                 0.000000000000000E+00
(PID.TID 0000.0001)     ;
(PID.TID 0000.0001) PTRACERS_taveFreq = /* Frequency^-1 for time-Aver. output (s) */
(PID.TID 0000.0001)                 0.000000000000000E+00
(PID.TID 0000.0001)     ;
(PID.TID 0000.0001) PTRACERS_useRecords = /* all tracers in 1 file */
(PID.TID 0000.0001)                   F
(PID.TID 0000.0001)     ;
(PID.TID 0000.0001) PTRACERS_timeave_mnc = /* use MNC for Tave output */
(PID.TID 0000.0001)                   F
(PID.TID 0000.0001)     ;
(PID.TID 0000.0001) PTRACERS_snapshot_mnc = /* use MNC for snapshot output */
(PID.TID 0000.0001)                   F
(PID.TID 0000.0001)     ;
(PID.TID 0000.0001) PTRACERS_pickup_write_mnc = /* use MNC for writing pickups */
(PID.TID 0000.0001)                   F
(PID.TID 0000.0001)     ;
(PID.TID 0000.0001) PTRACERS_pickup_read_mnc = /* use MNC for reading pickups */
(PID.TID 0000.0001)                   F
(PID.TID 0000.0001)     ;
(PID.TID 0000.0001)  -----------------------------------
(PID.TID 0000.0001)  tracer number :    1
(PID.TID 0000.0001) PTRACERS_advScheme = /* Advection Scheme */
(PID.TID 0000.0001)                      30
(PID.TID 0000.0001)     ;
(PID.TID 0000.0001) PTRACERS_ImplVertAdv = /* implicit vert. advection flag */
(PID.TID 0000.0001)                   F
(PID.TID 0000.0001)     ;
(PID.TID 0000.0001) PTRACERS_diffKh = /* Laplacian Diffusivity */
(PID.TID 0000.0001)                 5.000000000000000E+03
(PID.TID 0000.0001)     ;
(PID.TID 0000.0001) PTRACERS_diffK4 = /* Biharmonic Diffusivity */
(PID.TID 0000.0001)                 0.000000000000000E+00
(PID.TID 0000.0001)     ;
(PID.TID 0000.0001) PTRACERS_diffKrNr = /* Vertical Diffusivity */
(PID.TID 0000.0001)                 5.000000000000000E-05       /* K =  1 */
(PID.TID 0000.0001)     ;
(PID.TID 0000.0001) PTRACERS_useGMRedi = /* apply GM-Redi */
(PID.TID 0000.0001)                   F
(PID.TID 0000.0001)     ;
(PID.TID 0000.0001) PTRACERS_useKPP = /* apply KPP scheme */
(PID.TID 0000.0001)                   F
(PID.TID 0000.0001)     ;
(PID.TID 0000.0001)  -----------------------------------
(PID.TID 0000.0001)  MATRIX_READPARMS: opening data.matrix
(PID.TID 0000.0001)  OPEN_COPY_DATA_FILE: opening file data.matrix
(PID.TID 0000.0001) // =======================================================
(PID.TID 0000.0001) // Parameter file "data.matrix"
(PID.TID 0000.0001) // =======================================================
(PID.TID 0000.0001) > &MATRIX_PARM01
(PID.TID 0000.0001) > expMatrixWriteTime=20000.0,
(PID.TID 0000.0001) > impMatrixWriteTime=20000.0
(PID.TID 0000.0001) > /
(PID.TID 0000.0001) 
(PID.TID 0000.0001)  MATRIX_READPARMS: finished reading data.matrix
(PID.TID 0000.0001) %MON XC_max                       =   1.5250000000000E+06
(PID.TID 0000.0001) %MON XC_min                       =   2.5000000000000E+04
(PID.TID 0000.0001) %MON XC_mean                      =   7.7500000000000E+05
(PID.TID 0000.0001) %MON XC_sd                        =   4.4721359549996E+05
(PID.TID 0000.0001) %MON XG_max                       =   1.5000000000000E+06
(PID.TID 0000.0001) %MON XG_min                       =   5.0000000000000E+04
(PID.TID 0000.0001) %MON XG_mean                      =   7.7500000000000E+05
(PID.TID 0000.0001) %MON XG_sd                        =   4.3277207241996E+05
(PID.TID 0000.0001) %MON DXC_max                      =   5.0000000000000E+04
(PID.TID 0000.0001) %MON DXC_min                      =   5.0000000000000E+04
(PID.TID 0000.0001) %MON DXC_mean                     =   5.0000000000000E+04
(PID.TID 0000.0001) %MON DXC_sd                       =   7.2759576141834E-12
(PID.TID 0000.0001) %MON DXF_max                      =   5.0000000000000E+04
(PID.TID 0000.0001) %MON DXF_min                      =   5.0000000000000E+04
(PID.TID 0000.0001) %MON DXF_mean                     =   5.0000000000000E+04
(PID.TID 0000.0001) %MON DXF_sd                       =   7.2759576141834E-12
(PID.TID 0000.0001) %MON DXG_max                      =   5.0000000000000E+04
(PID.TID 0000.0001) %MON DXG_min                      =   5.0000000000000E+04
(PID.TID 0000.0001) %MON DXG_mean                     =   5.0000000000000E+04
(PID.TID 0000.0001) %MON DXG_sd                       =   7.2759576141834E-12
(PID.TID 0000.0001) %MON DXV_max                      =   5.0000000000000E+04
(PID.TID 0000.0001) %MON DXV_min                      =   5.0000000000000E+04
(PID.TID 0000.0001) %MON DXV_mean                     =   5.0000000000000E+04
(PID.TID 0000.0001) %MON DXV_sd                       =   7.2759576141834E-12
(PID.TID 0000.0001) %MON YC_max                       =   1.5250000000000E+06
(PID.TID 0000.0001) %MON YC_min                       =   2.5000000000000E+04
(PID.TID 0000.0001) %MON YC_mean                      =   7.7500000000000E+05
(PID.TID 0000.0001) %MON YC_sd                        =   4.4721359549996E+05
(PID.TID 0000.0001) %MON YG_max                       =   1.5000000000000E+06
(PID.TID 0000.0001) %MON YG_min                       =   5.0000000000000E+04
(PID.TID 0000.0001) %MON YG_mean                      =   7.7500000000000E+05
(PID.TID 0000.0001) %MON YG_sd                        =   4.3277207241996E+05
(PID.TID 0000.0001) %MON DYC_max                      =   5.0000000000000E+04
(PID.TID 0000.0001) %MON DYC_min                      =   5.0000000000000E+04
(PID.TID 0000.0001) %MON DYC_mean                     =   5.0000000000000E+04
(PID.TID 0000.0001) %MON DYC_sd                       =   7.2759576141834E-12
(PID.TID 0000.0001) %MON DYF_max                      =   5.0000000000000E+04
(PID.TID 0000.0001) %MON DYF_min                      =   5.0000000000000E+04
(PID.TID 0000.0001) %MON DYF_mean                     =   5.0000000000000E+04
(PID.TID 0000.0001) %MON DYF_sd                       =   7.2759576141834E-12
(PID.TID 0000.0001) %MON DYG_max                      =   5.0000000000000E+04
(PID.TID 0000.0001) %MON DYG_min                      =   5.0000000000000E+04
(PID.TID 0000.0001) %MON DYG_mean                     =   5.0000000000000E+04
(PID.TID 0000.0001) %MON DYG_sd                       =   7.2759576141834E-12
(PID.TID 0000.0001) %MON DYU_max                      =   5.0000000000000E+04
(PID.TID 0000.0001) %MON DYU_min                      =   5.0000000000000E+04
(PID.TID 0000.0001) %MON DYU_mean                     =   5.0000000000000E+04
(PID.TID 0000.0001) %MON DYU_sd                       =   7.2759576141834E-12
(PID.TID 0000.0001) %MON RA_max                       =   2.5000000000000E+09
(PID.TID 0000.0001) %MON RA_min                       =   2.5000000000000E+09
(PID.TID 0000.0001) %MON RA_mean                      =   2.5000000000000E+09
(PID.TID 0000.0001) %MON RA_sd                        =   0.0000000000000E+00
(PID.TID 0000.0001) %MON RAW_max                      =   2.5000000000000E+09
(PID.TID 0000.0001) %MON RAW_min                      =   2.5000000000000E+09
(PID.TID 0000.0001) %MON RAW_mean                     =   2.5000000000000E+09
(PID.TID 0000.0001) %MON RAW_sd                       =   0.0000000000000E+00
(PID.TID 0000.0001) %MON RAS_max                      =   2.5000000000000E+09
(PID.TID 0000.0001) %MON RAS_min                      =   2.5000000000000E+09
(PID.TID 0000.0001) %MON RAS_mean                     =   2.5000000000000E+09
(PID.TID 0000.0001) %MON RAS_sd                       =   0.0000000000000E+00
(PID.TID 0000.0001) %MON RAZ_max                      =   2.5000000000000E+09
(PID.TID 0000.0001) %MON RAZ_min                      =   2.5000000000000E+09
(PID.TID 0000.0001) %MON RAZ_mean                     =   2.5000000000000E+09
(PID.TID 0000.0001) %MON RAZ_sd                       =   0.0000000000000E+00
(PID.TID 0000.0001) %MON AngleCS_max                  =   1.0000000000000E+00
(PID.TID 0000.0001) %MON AngleCS_min                  =   1.0000000000000E+00
(PID.TID 0000.0001) %MON AngleCS_mean                 =   1.0000000000000E+00
(PID.TID 0000.0001) %MON AngleCS_sd                   =   0.0000000000000E+00
(PID.TID 0000.0001) %MON AngleSN_max                  =   0.0000000000000E+00
(PID.TID 0000.0001) %MON AngleSN_min                  =   0.0000000000000E+00
(PID.TID 0000.0001) %MON AngleSN_mean                 =   0.0000000000000E+00
(PID.TID 0000.0001) %MON AngleSN_sd                   =   0.0000000000000E+00
(PID.TID 0000.0001) // =======================================================
(PID.TID 0000.0001) // Field Model R_low (ini_masks_etc) at iteration          1
(PID.TID 0000.0001) // CMIN =         -5.000000000000000E+03
(PID.TID 0000.0001) // CMAX =         -5.000000000000000E+03
(PID.TID 0000.0001) // CINT =          0.000000000000000E+00
(PID.TID 0000.0001) // SYMBOLS (CMIN->CMAX): -abcdefghijklmnopqrstuvwxyz+
(PID.TID 0000.0001) //                  0.0: .
(PID.TID 0000.0001) // RANGE I (Lo:Hi:Step):(  -2:  34:   1)
(PID.TID 0000.0001) // RANGE J (Lo:Hi:Step):(  34:  -2:  -1)
(PID.TID 0000.0001) // RANGE K (Lo:Hi:Step):(   1:   1:   1)
(PID.TID 0000.0001) // =======================================================
(PID.TID 0000.0001) // =======================================================
(PID.TID 0000.0001) // END OF FIELD                                          =
(PID.TID 0000.0001) // =======================================================
(PID.TID 0000.0001) 
(PID.TID 0000.0001) // =======================================================
(PID.TID 0000.0001) // Field Model Ro_surf (ini_masks_etc) at iteration          1
(PID.TID 0000.0001) // CMIN =          1.000000000000000E+32
(PID.TID 0000.0001) // CMAX =         -1.000000000000000E+32
(PID.TID 0000.0001) // CINT =          0.000000000000000E+00
(PID.TID 0000.0001) // SYMBOLS (CMIN->CMAX): -abcdefghijklmnopqrstuvwxyz+
(PID.TID 0000.0001) //                  0.0: .
(PID.TID 0000.0001) // RANGE I (Lo:Hi:Step):(  -2:  34:   1)
(PID.TID 0000.0001) // RANGE J (Lo:Hi:Step):(  34:  -2:  -1)
(PID.TID 0000.0001) // RANGE K (Lo:Hi:Step):(   1:   1:   1)
(PID.TID 0000.0001) // =======================================================
(PID.TID 0000.0001) // =======================================================
(PID.TID 0000.0001) // END OF FIELD                                          =
(PID.TID 0000.0001) // =======================================================
(PID.TID 0000.0001) 
(PID.TID 0000.0001) // =======================================================
(PID.TID 0000.0001) // Field hFacC at iteration          1
(PID.TID 0000.0001) // CMIN =          1.000000000000000E+00
(PID.TID 0000.0001) // CMAX =          1.000000000000000E+00
(PID.TID 0000.0001) // CINT =          0.000000000000000E+00
(PID.TID 0000.0001) // SYMBOLS (CMIN->CMAX): -abcdefghijklmnopqrstuvwxyz+
(PID.TID 0000.0001) //                  0.0: .
(PID.TID 0000.0001) // RANGE I (Lo:Hi:Step):(  -2:  34:   1)
(PID.TID 0000.0001) // RANGE J (Lo:Hi:Step):(  34:  -2:  -1)
(PID.TID 0000.0001) // RANGE K (Lo:Hi:Step):(   1:   1:   1)
(PID.TID 0000.0001) // =======================================================
(PID.TID 0000.0001) // =======================================================
(PID.TID 0000.0001) // END OF FIELD                                          =
(PID.TID 0000.0001) // =======================================================
(PID.TID 0000.0001) 
(PID.TID 0000.0001) // =======================================================
(PID.TID 0000.0001) // Field hFacW at iteration          1
(PID.TID 0000.0001) // CMIN =          1.000000000000000E+00
(PID.TID 0000.0001) // CMAX =          1.000000000000000E+00
(PID.TID 0000.0001) // CINT =          0.000000000000000E+00
(PID.TID 0000.0001) // SYMBOLS (CMIN->CMAX): -abcdefghijklmnopqrstuvwxyz+
(PID.TID 0000.0001) //                  0.0: .
(PID.TID 0000.0001) // RANGE I (Lo:Hi:Step):(  -2:  34:   1)
(PID.TID 0000.0001) // RANGE J (Lo:Hi:Step):(  34:  -2:  -1)
(PID.TID 0000.0001) // RANGE K (Lo:Hi:Step):(   1:   1:   1)
(PID.TID 0000.0001) // =======================================================
(PID.TID 0000.0001) // =======================================================
(PID.TID 0000.0001) // END OF FIELD                                          =
(PID.TID 0000.0001) // =======================================================
(PID.TID 0000.0001) 
(PID.TID 0000.0001) // =======================================================
(PID.TID 0000.0001) // Field hFacS at iteration          1
(PID.TID 0000.0001) // CMIN =          1.000000000000000E+00
(PID.TID 0000.0001) // CMAX =          1.000000000000000E+00
(PID.TID 0000.0001) // CINT =          0.000000000000000E+00
(PID.TID 0000.0001) // SYMBOLS (CMIN->CMAX): -abcdefghijklmnopqrstuvwxyz+
(PID.TID 0000.0001) //                  0.0: .
(PID.TID 0000.0001) // RANGE I (Lo:Hi:Step):(  -2:  34:   1)
(PID.TID 0000.0001) // RANGE J (Lo:Hi:Step):(  34:  -2:  -1)
(PID.TID 0000.0001) // RANGE K (Lo:Hi:Step):(   1:   1:   1)
(PID.TID 0000.0001) // =======================================================
(PID.TID 0000.0001) // =======================================================
(PID.TID 0000.0001) // END OF FIELD                                          =
(PID.TID 0000.0001) // =======================================================
(PID.TID 0000.0001) 
(PID.TID 0000.0001) 
(PID.TID 0000.0001) // ===================================
(PID.TID 0000.0001) // GAD parameters :
(PID.TID 0000.0001) // ===================================
(PID.TID 0000.0001) tempAdvScheme =   /* Temp. Horiz.Advection scheme selector */
(PID.TID 0000.0001)                       2
(PID.TID 0000.0001)     ;
(PID.TID 0000.0001) tempVertAdvScheme =   /* Temp. Vert. Advection scheme selector */
(PID.TID 0000.0001)                       2
(PID.TID 0000.0001)     ;
(PID.TID 0000.0001) tempMultiDimAdvec =   /* use Muti-Dim Advec method for Temp */
(PID.TID 0000.0001)                   F
(PID.TID 0000.0001)     ;
(PID.TID 0000.0001) tempAdamsBashforth =   /* use Adams-Bashforth time-stepping for Temp */
(PID.TID 0000.0001)                   T
(PID.TID 0000.0001)     ;
(PID.TID 0000.0001) saltAdvScheme =   /* Salt. Horiz.advection scheme selector */
(PID.TID 0000.0001)                       2
(PID.TID 0000.0001)     ;
(PID.TID 0000.0001) saltVertAdvScheme =   /* Salt. Vert. Advection scheme selector */
(PID.TID 0000.0001)                       2
(PID.TID 0000.0001)     ;
(PID.TID 0000.0001) saltMultiDimAdvec =   /* use Muti-Dim Advec method for Salt */
(PID.TID 0000.0001)                   F
(PID.TID 0000.0001)     ;
(PID.TID 0000.0001) saltAdamsBashforth =   /* use Adams-Bashforth time-stepping for Salt */
(PID.TID 0000.0001)                   T
(PID.TID 0000.0001)     ;
(PID.TID 0000.0001) // ===================================
(PID.TID 0000.0001) %MON fCori_max                    =   1.1525000000000E-04
(PID.TID 0000.0001) %MON fCori_min                    =   1.0025000000000E-04
(PID.TID 0000.0001) %MON fCori_mean                   =   1.0775000000000E-04
(PID.TID 0000.0001) %MON fCori_sd                     =   4.4721359549996E-06
(PID.TID 0000.0001) %MON fCoriG_max                   =   1.1500000000000E-04
(PID.TID 0000.0001) %MON fCoriG_min                   =   1.0000000000000E-04
(PID.TID 0000.0001) %MON fCoriG_mean                  =   1.0750000000000E-04
(PID.TID 0000.0001) %MON fCoriG_sd                    =   4.4721359549996E-06
(PID.TID 0000.0001) %MON fCoriCos_max                 =   0.0000000000000E+00
(PID.TID 0000.0001) %MON fCoriCos_min                 =   0.0000000000000E+00
(PID.TID 0000.0001) %MON fCoriCos_mean                =   0.0000000000000E+00
(PID.TID 0000.0001) %MON fCoriCos_sd                  =   0.0000000000000E+00
(PID.TID 0000.0001) INI_CG2D: CG2D normalisation factor =  2.0000000000000001E-04
(PID.TID 0000.0001) 
(PID.TID 0000.0001) CONFIG_CHECK: OK
(PID.TID 0000.0001) // =======================================================
(PID.TID 0000.0001) // Model configuration
(PID.TID 0000.0001) // =======================================================
(PID.TID 0000.0001) //
(PID.TID 0000.0001) // "Physical" paramters ( PARM01 in namelist )
(PID.TID 0000.0001) //
(PID.TID 0000.0001) buoyancyRelation = OCEANIC
(PID.TID 0000.0001) fluidIsAir  =  /* fluid major constituent is Air */
(PID.TID 0000.0001)                   F
(PID.TID 0000.0001)     ;
(PID.TID 0000.0001) fluidIsWater=  /* fuild major constituent is Water */
(PID.TID 0000.0001)                   T
(PID.TID 0000.0001)     ;
(PID.TID 0000.0001) usingPCoords =  /* use p (or p*) vertical coordinate */
(PID.TID 0000.0001)                   F
(PID.TID 0000.0001)     ;
(PID.TID 0000.0001) usingZCoords =  /* use z (or z*) vertical coordinate */
(PID.TID 0000.0001)                   T
(PID.TID 0000.0001)     ;
(PID.TID 0000.0001) tRef =   /* Reference temperature profile ( oC or oK ) */
(PID.TID 0000.0001)                 2.000000000000000E+01       /* K =  1 */
(PID.TID 0000.0001)     ;
(PID.TID 0000.0001) sRef =   /* Reference salinity profile ( ppt ) */
(PID.TID 0000.0001)                 1.000000000000000E+01       /* K =  1 */
(PID.TID 0000.0001)     ;
(PID.TID 0000.0001) viscAh =   /* Lateral eddy viscosity ( m^2/s ) */
(PID.TID 0000.0001)                 5.000000000000000E+03
(PID.TID 0000.0001)     ;
(PID.TID 0000.0001) viscAhMax =   /* Maximum lateral eddy viscosity ( m^2/s ) */
(PID.TID 0000.0001)                 1.000000000000000E+21
(PID.TID 0000.0001)     ;
(PID.TID 0000.0001) viscAhGrid =   /* Grid dependent lateral eddy viscosity ( non-dim. ) */
(PID.TID 0000.0001)                 0.000000000000000E+00
(PID.TID 0000.0001)     ;
(PID.TID 0000.0001) useFullLeith =   /* Use Full Form of Leith Viscosity on/off flag*/
(PID.TID 0000.0001)                   F
(PID.TID 0000.0001)     ;
(PID.TID 0000.0001) viscC2leith = /* Leith harmonic viscosity factor (on grad(vort),non-dim.) */
(PID.TID 0000.0001)                 0.000000000000000E+00
(PID.TID 0000.0001)     ;
(PID.TID 0000.0001) viscC2leithD = /* Leith harmonic viscosity factor (on grad(div),non-dim.) */
(PID.TID 0000.0001)                 0.000000000000000E+00
(PID.TID 0000.0001)     ;
(PID.TID 0000.0001) viscC2smag =   /* Smagorinsky harmonic viscosity factor (non-dim.) */
(PID.TID 0000.0001)                 0.000000000000000E+00
(PID.TID 0000.0001)     ;
(PID.TID 0000.0001) viscA4 =   /* Lateral biharmonic viscosity ( m^4/s ) */
(PID.TID 0000.0001)                 0.000000000000000E+00
(PID.TID 0000.0001)     ;
(PID.TID 0000.0001) viscA4Max =   /* Maximum biharmonic viscosity ( m^2/s ) */
(PID.TID 0000.0001)                 1.000000000000000E+21
(PID.TID 0000.0001)     ;
(PID.TID 0000.0001) viscA4Grid =   /* Grid dependent biharmonic viscosity ( non-dim. ) */
(PID.TID 0000.0001)                 0.000000000000000E+00
(PID.TID 0000.0001)     ;
(PID.TID 0000.0001) viscC4leith = /* Leith biharm viscosity factor (on grad(vort), non-dim.) */
(PID.TID 0000.0001)                 0.000000000000000E+00
(PID.TID 0000.0001)     ;
(PID.TID 0000.0001) viscC4leithD = /* Leith biharm viscosity factor (on grad(div), non-dim.) */
(PID.TID 0000.0001)                 0.000000000000000E+00
(PID.TID 0000.0001)     ;
(PID.TID 0000.0001) no_slip_sides =  /* Viscous BCs: No-slip sides */
(PID.TID 0000.0001)                   T
(PID.TID 0000.0001)     ;
(PID.TID 0000.0001) viscAr =   /* Vertical eddy viscosity ( units of r^2/s ) */
(PID.TID 0000.0001)                 1.000000000000000E-02
(PID.TID 0000.0001)     ;
(PID.TID 0000.0001) no_slip_bottom =  /* Viscous BCs: No-slip bottom */
(PID.TID 0000.0001)                   T
(PID.TID 0000.0001)     ;
(PID.TID 0000.0001) diffKhT =   /* Laplacian diffusion of heat laterally ( m^2/s ) */
(PID.TID 0000.0001)                 5.000000000000000E+03
(PID.TID 0000.0001)     ;
(PID.TID 0000.0001) diffK4T =   /* Bihaarmonic diffusion of heat laterally ( m^4/s ) */
(PID.TID 0000.0001)                 0.000000000000000E+00
(PID.TID 0000.0001)     ;
(PID.TID 0000.0001) diffKhS =   /* Laplacian diffusion of salt laterally ( m^2/s ) */
(PID.TID 0000.0001)                 0.000000000000000E+00
(PID.TID 0000.0001)     ;
(PID.TID 0000.0001) diffK4S =   /* Bihaarmonic diffusion of salt laterally ( m^4/s ) */
(PID.TID 0000.0001)                 0.000000000000000E+00
(PID.TID 0000.0001)     ;
(PID.TID 0000.0001) diffKrNrT = /* vertical profile of vertical diffusion of Temp ( m^2/s )*/
(PID.TID 0000.0001)                 1.000000000000000E-02       /* K =  1 */
(PID.TID 0000.0001)     ;
(PID.TID 0000.0001) diffKrNrS = /* vertical profile of vertical diffusion of Salt ( m^2/s )*/
(PID.TID 0000.0001)                 0.000000000000000E+00       /* K =  1 */
(PID.TID 0000.0001)     ;
(PID.TID 0000.0001) diffKrBL79surf =   /* Surface diffusion for Bryan and Lewis 1979 ( m^2/s ) */
(PID.TID 0000.0001)                 0.000000000000000E+00
(PID.TID 0000.0001)     ;
(PID.TID 0000.0001) diffKrBL79deep =   /* Deep diffusion for Bryan and Lewis 1979 ( m^2/s ) */
(PID.TID 0000.0001)                 0.000000000000000E+00
(PID.TID 0000.0001)     ;
(PID.TID 0000.0001) diffKrBL79scl =   /* Depth scale for Bryan and Lewis 1979 ( m ) */
(PID.TID 0000.0001)                 2.000000000000000E+02
(PID.TID 0000.0001)     ;
(PID.TID 0000.0001) diffKrBL79Ho =   /* Turning depth for Bryan and Lewis 1979 ( m ) */
(PID.TID 0000.0001)                -2.000000000000000E+03
(PID.TID 0000.0001)     ;
(PID.TID 0000.0001)  Equation of State : eosType = LINEAR
(PID.TID 0000.0001) tAlpha =   /* Linear EOS thermal expansion coefficient ( 1/degree ) */
(PID.TID 0000.0001)                 2.000000000000000E-04
(PID.TID 0000.0001)     ;
(PID.TID 0000.0001) sBeta =   /* Linear EOS haline contraction coefficient ( 1/ppt ) */
(PID.TID 0000.0001)                 0.000000000000000E+00
(PID.TID 0000.0001)     ;
(PID.TID 0000.0001) rhonil =   /* Reference density ( kg/m^3 ) */
(PID.TID 0000.0001)                 1.035000000000000E+03
(PID.TID 0000.0001)     ;
(PID.TID 0000.0001) rhoConst =   /* Reference density ( kg/m^3 ) */
(PID.TID 0000.0001)                 1.035000000000000E+03
(PID.TID 0000.0001)     ;
(PID.TID 0000.0001) rhoConstFresh =   /* Reference density ( kg/m^3 ) */
(PID.TID 0000.0001)                 1.035000000000000E+03
(PID.TID 0000.0001)     ;
(PID.TID 0000.0001) gravity =   /* Gravitational acceleration ( m/s^2 ) */
(PID.TID 0000.0001)                 9.810000000000000E+00
(PID.TID 0000.0001)     ;
(PID.TID 0000.0001) gBaro =   /* Barotropic gravity ( m/s^2 ) */
(PID.TID 0000.0001)                 9.810000000000000E+00
(PID.TID 0000.0001)     ;
(PID.TID 0000.0001) rotationPeriod =   /* Rotation Period ( s ) */
(PID.TID 0000.0001)                 8.640000000000000E+04
(PID.TID 0000.0001)     ;
(PID.TID 0000.0001) omega =   /* Angular velocity ( rad/s ) */
(PID.TID 0000.0001)                 7.272205216643040E-05
(PID.TID 0000.0001)     ;
(PID.TID 0000.0001) f0 =   /* Reference coriolis parameter ( 1/s ) */
(PID.TID 0000.0001)                 1.000000000000000E-04
(PID.TID 0000.0001)     ;
(PID.TID 0000.0001) beta =   /* Beta ( 1/(m.s) ) */
(PID.TID 0000.0001)                 9.999999999999999E-12
(PID.TID 0000.0001)     ;
(PID.TID 0000.0001) freeSurfFac =   /* Implicit free surface factor */
(PID.TID 0000.0001)                 1.000000000000000E+00
(PID.TID 0000.0001)     ;
(PID.TID 0000.0001) implicitFreeSurface =   /* Implicit free surface on/off flag */
(PID.TID 0000.0001)                   T
(PID.TID 0000.0001)     ;
(PID.TID 0000.0001) rigidLid =   /* Rigid lid on/off flag */
(PID.TID 0000.0001)                   F
(PID.TID 0000.0001)     ;
(PID.TID 0000.0001) implicSurfPress =   /* Surface Pressure implicit factor (0-1)*/
(PID.TID 0000.0001)                 1.000000000000000E+00
(PID.TID 0000.0001)     ;
(PID.TID 0000.0001) implicDiv2Dflow =   /* Barot. Flow Div. implicit factor (0-1)*/
(PID.TID 0000.0001)                 1.000000000000000E+00
(PID.TID 0000.0001)     ;
(PID.TID 0000.0001) exactConserv =   /* Exact Volume Conservation on/off flag*/
(PID.TID 0000.0001)                   F
(PID.TID 0000.0001)     ;
(PID.TID 0000.0001) uniformLin_PhiSurf =   /* use uniform Bo_surf on/off flag*/
(PID.TID 0000.0001)                   T
(PID.TID 0000.0001)     ;
(PID.TID 0000.0001) nonlinFreeSurf =   /* Non-linear Free Surf. options (-1,0,1,2,3)*/
(PID.TID 0000.0001)                       0
(PID.TID 0000.0001)     ;
(PID.TID 0000.0001)      -1,0= Off ; 1,2,3= On, 2=+rescale gU,gV, 3=+update cg2d solv.
(PID.TID 0000.0001) hFacInf =   /* lower threshold for hFac (nonlinFreeSurf only)*/
(PID.TID 0000.0001)                 2.000000000000000E-01
(PID.TID 0000.0001)     ;
(PID.TID 0000.0001) hFacSup =   /* upper threshold for hFac (nonlinFreeSurf only)*/
(PID.TID 0000.0001)                 2.000000000000000E+00
(PID.TID 0000.0001)     ;
(PID.TID 0000.0001) select_rStar =   /* r* Coordinate options (not yet implemented)*/
(PID.TID 0000.0001)                       0
(PID.TID 0000.0001)     ;
(PID.TID 0000.0001) useRealFreshWaterFlux =   /* Real Fresh Water Flux on/off flag*/
(PID.TID 0000.0001)                   F
(PID.TID 0000.0001)     ;
(PID.TID 0000.0001) convertFW2Salt = /* convert F.W. Flux to Salt Flux (-1=use local S)(ppt)*/
(PID.TID 0000.0001)                 3.500000000000000E+01
(PID.TID 0000.0001)     ;
(PID.TID 0000.0001) nonHydrostatic =  /* Non-Hydrostatic on/off flag */
(PID.TID 0000.0001)                   F
(PID.TID 0000.0001)     ;
(PID.TID 0000.0001) momStepping =  /* Momentum equation on/off flag */
(PID.TID 0000.0001)                   T
(PID.TID 0000.0001)     ;
(PID.TID 0000.0001) momAdvection =  /* Momentum advection on/off flag */
(PID.TID 0000.0001)                   T
(PID.TID 0000.0001)     ;
(PID.TID 0000.0001) momViscosity =  /* Momentum viscosity on/off flag */
(PID.TID 0000.0001)                   T
(PID.TID 0000.0001)     ;
(PID.TID 0000.0001) momImplVertAdv =/* Momentum implicit vert. advection on/off*/
(PID.TID 0000.0001)                   F
(PID.TID 0000.0001)     ;
(PID.TID 0000.0001) implicitViscosity = /* Implicit viscosity on/off flag */
(PID.TID 0000.0001)                   F
(PID.TID 0000.0001)     ;
(PID.TID 0000.0001) useCoriolis =  /* Coriolis on/off flag */
(PID.TID 0000.0001)                   T
(PID.TID 0000.0001)     ;
(PID.TID 0000.0001) useCDscheme =  /* CD scheme on/off flag */
(PID.TID 0000.0001)                   F
(PID.TID 0000.0001)     ;
(PID.TID 0000.0001) useJamartWetPoints= /* Coriolis WetPoints method flag */
(PID.TID 0000.0001)                   F
(PID.TID 0000.0001)     ;
(PID.TID 0000.0001) useJamartMomAdv= /* V.I. Non-linear terms Jamart flag */
(PID.TID 0000.0001)                   F
(PID.TID 0000.0001)     ;
(PID.TID 0000.0001) SadournyCoriolis= /* Sadourny Coriolis discr. flag */
(PID.TID 0000.0001)                   F
(PID.TID 0000.0001)     ;
(PID.TID 0000.0001) upwindVorticity= /* Upwind bias vorticity flag */
(PID.TID 0000.0001)                   F
(PID.TID 0000.0001)     ;
(PID.TID 0000.0001) useAbsVorticity= /* Work with f+zeta in Coriolis */
(PID.TID 0000.0001)                   F
(PID.TID 0000.0001)     ;
(PID.TID 0000.0001) highOrderVorticity= /* High order interp. of vort. flag */
(PID.TID 0000.0001)                   F
(PID.TID 0000.0001)     ;
(PID.TID 0000.0001) upwindShear= /* Upwind vertical Shear advection flag */
(PID.TID 0000.0001)                   F
(PID.TID 0000.0001)     ;
(PID.TID 0000.0001) momForcing =  /* Momentum forcing on/off flag */
(PID.TID 0000.0001)                   T
(PID.TID 0000.0001)     ;
(PID.TID 0000.0001) momPressureForcing =  /* Momentum pressure term on/off flag */
(PID.TID 0000.0001)                   T
(PID.TID 0000.0001)     ;
(PID.TID 0000.0001) staggerTimeStep =   /* Stagger time stepping on/off flag */
(PID.TID 0000.0001)                   F
(PID.TID 0000.0001)     ;
(PID.TID 0000.0001) multiDimAdvection =   /* enable/disable Multi-Dim Advection */
(PID.TID 0000.0001)                   T
(PID.TID 0000.0001)     ;
(PID.TID 0000.0001) useMultiDimAdvec =   /* Multi-Dim Advection is/is-not used */
(PID.TID 0000.0001)                   T
(PID.TID 0000.0001)     ;
(PID.TID 0000.0001) implicitDiffusion =/* Implicit Diffusion on/off flag */
(PID.TID 0000.0001)                   F
(PID.TID 0000.0001)     ;
(PID.TID 0000.0001) tempStepping =  /* Temperature equation on/off flag */
(PID.TID 0000.0001)                   T
(PID.TID 0000.0001)     ;
(PID.TID 0000.0001) tempAdvection=  /* Temperature advection on/off flag */
(PID.TID 0000.0001)                   T
(PID.TID 0000.0001)     ;
(PID.TID 0000.0001) tempImplVertAdv =/* Temp. implicit vert. advection on/off */
(PID.TID 0000.0001)                   F
(PID.TID 0000.0001)     ;
(PID.TID 0000.0001) tempForcing  =  /* Temperature forcing on/off flag */
(PID.TID 0000.0001)                   T
(PID.TID 0000.0001)     ;
(PID.TID 0000.0001) saltStepping =  /* Salinity equation on/off flag */
(PID.TID 0000.0001)                   T
(PID.TID 0000.0001)     ;
(PID.TID 0000.0001) saltAdvection=  /* Salinity advection on/off flag */
(PID.TID 0000.0001)                   T
(PID.TID 0000.0001)     ;
(PID.TID 0000.0001) saltImplVertAdv =/* Sali. implicit vert. advection on/off */
(PID.TID 0000.0001)                   F
(PID.TID 0000.0001)     ;
(PID.TID 0000.0001) saltForcing  =  /* Salinity forcing on/off flag */
(PID.TID 0000.0001)                   T
(PID.TID 0000.0001)     ;
(PID.TID 0000.0001)  debugMode  =  /* Debug Mode on/off flag */
(PID.TID 0000.0001)                   F
(PID.TID 0000.0001)     ;
(PID.TID 0000.0001)    debLevA  =  /* 1rst level of debugging */
(PID.TID 0000.0001)                       1
(PID.TID 0000.0001)     ;
(PID.TID 0000.0001)    debLevB  =  /* 2nd  level of debugging */
(PID.TID 0000.0001)                       2
(PID.TID 0000.0001)     ;
(PID.TID 0000.0001)  debugLevel =  /* select debugging level */
(PID.TID 0000.0001)                       1
(PID.TID 0000.0001)     ;
(PID.TID 0000.0001) //
(PID.TID 0000.0001) // Elliptic solver(s) paramters ( PARM02 in namelist )
(PID.TID 0000.0001) //
(PID.TID 0000.0001) cg2dMaxIters =   /* Upper limit on 2d con. grad iterations  */
(PID.TID 0000.0001)                    1000
(PID.TID 0000.0001)     ;
(PID.TID 0000.0001) cg2dChkResFreq =   /* 2d con. grad convergence test frequency */
(PID.TID 0000.0001)                       1
(PID.TID 0000.0001)     ;
(PID.TID 0000.0001) cg2dTargetResidual =   /* 2d con. grad target residual  */
(PID.TID 0000.0001)                 1.000000000000000E-07
(PID.TID 0000.0001)     ;
(PID.TID 0000.0001) cg2dTargetResWunit =   /* CG2d target residual [W units] */
(PID.TID 0000.0001)                -1.000000000000000E+00
(PID.TID 0000.0001)     ;
(PID.TID 0000.0001) cg2dPreCondFreq =   /* Freq. for updating cg2d preconditioner */
(PID.TID 0000.0001)                       1
(PID.TID 0000.0001)     ;
(PID.TID 0000.0001) //
(PID.TID 0000.0001) // Time stepping paramters ( PARM03 in namelist )
(PID.TID 0000.0001) //
(PID.TID 0000.0001) nIter0 =   /* Run starting timestep number  */
(PID.TID 0000.0001)                  200000
(PID.TID 0000.0001)     ;
(PID.TID 0000.0001) nTimeSteps =   /* Number of timesteps */
(PID.TID 0000.0001)                      10
(PID.TID 0000.0001)     ;
(PID.TID 0000.0001) deltatTmom =   /* Momentum equation timestep ( s ) */
(PID.TID 0000.0001)                 2.000000000000000E+04
(PID.TID 0000.0001)     ;
(PID.TID 0000.0001) deltaTfreesurf =   /* FreeSurface equation timestep ( s ) */
(PID.TID 0000.0001)                 2.000000000000000E+04
(PID.TID 0000.0001)     ;
(PID.TID 0000.0001) dTtracerLev =   /* Tracer equation timestep ( s ) */
(PID.TID 0000.0001)                 2.000000000000000E+04       /* K =  1 */
(PID.TID 0000.0001)     ;
(PID.TID 0000.0001) deltatTClock  =   /* Model clock timestep ( s ) */
(PID.TID 0000.0001)                 2.000000000000000E+04
(PID.TID 0000.0001)     ;
(PID.TID 0000.0001) cAdjFreq =   /* Convective adjustment interval ( s ) */
(PID.TID 0000.0001)                 0.000000000000000E+00
(PID.TID 0000.0001)     ;
(PID.TID 0000.0001) forcing_In_AB =   /* put T,S Forcing in Adams-Bash. stepping */
(PID.TID 0000.0001)                   T
(PID.TID 0000.0001)     ;
(PID.TID 0000.0001) abEps =   /* Adams-Bashforth-2 stabilizing weight */
(PID.TID 0000.0001)                 1.000000000000000E-01
(PID.TID 0000.0001)     ;
(PID.TID 0000.0001) baseTime =   /* Model base time ( s ). */
(PID.TID 0000.0001)                 0.000000000000000E+00
(PID.TID 0000.0001)     ;
(PID.TID 0000.0001) startTime =   /* Run start time ( s ). */
(PID.TID 0000.0001)                 4.000000000000000E+09
(PID.TID 0000.0001)     ;
(PID.TID 0000.0001) endTime =   /* Integration ending time ( s ). */
(PID.TID 0000.0001)                 4.000200000000000E+09
(PID.TID 0000.0001)     ;
(PID.TID 0000.0001) pChkPtFreq =   /* Permanent restart/checkpoint file interval ( s ). */
(PID.TID 0000.0001)                 5.000000000000000E+08
(PID.TID 0000.0001)     ;
(PID.TID 0000.0001) chkPtFreq =   /* Rolling restart/checkpoint file interval ( s ). */
(PID.TID 0000.0001)                 0.000000000000000E+00
(PID.TID 0000.0001)     ;
(PID.TID 0000.0001) pickup_write_mdsio =   /* Model IO flag. */
(PID.TID 0000.0001)                   T
(PID.TID 0000.0001)     ;
(PID.TID 0000.0001) pickup_read_mdsio =   /* Model IO flag. */
(PID.TID 0000.0001)                   T
(PID.TID 0000.0001)     ;
(PID.TID 0000.0001) pickup_write_immed =   /* Model IO flag. */
(PID.TID 0000.0001)                   F
(PID.TID 0000.0001)     ;
(PID.TID 0000.0001) dumpFreq =   /* Model state write out interval ( s ). */
(PID.TID 0000.0001)                 2.000000000000000E+08
(PID.TID 0000.0001)     ;
(PID.TID 0000.0001) snapshot_mdsio =   /* Model IO flag. */
(PID.TID 0000.0001)                   T
(PID.TID 0000.0001)     ;
(PID.TID 0000.0001) monitorFreq =   /* Monitor output interval ( s ). */
(PID.TID 0000.0001)                 2.000000000000000E+00
(PID.TID 0000.0001)     ;
(PID.TID 0000.0001) monitor_stdio =   /* Model IO flag. */
(PID.TID 0000.0001)                   T
(PID.TID 0000.0001)     ;
(PID.TID 0000.0001) externForcingPeriod =   /* forcing period (s) */
(PID.TID 0000.0001)                 0.000000000000000E+00
(PID.TID 0000.0001)     ;
(PID.TID 0000.0001) externForcingCycle =   /* period of the cyle (s). */
(PID.TID 0000.0001)                 0.000000000000000E+00
(PID.TID 0000.0001)     ;
(PID.TID 0000.0001) tauThetaClimRelax =   /* relaxation time scale (s) */
(PID.TID 0000.0001)                 0.000000000000000E+00
(PID.TID 0000.0001)     ;
(PID.TID 0000.0001) tauSaltClimRelax =   /* relaxation time scale (s) */
(PID.TID 0000.0001)                 0.000000000000000E+00
(PID.TID 0000.0001)     ;
(PID.TID 0000.0001) latBandClimRelax =   /* max. Lat. where relaxation */
(PID.TID 0000.0001)                 4.805000000000000E+07
(PID.TID 0000.0001)     ;
(PID.TID 0000.0001) //
(PID.TID 0000.0001) // Gridding paramters ( PARM04 in namelist )
(PID.TID 0000.0001) //
(PID.TID 0000.0001) usingCartesianGrid =   /* Cartesian coordinates flag ( True / False ) */
(PID.TID 0000.0001)                   T
(PID.TID 0000.0001)     ;
(PID.TID 0000.0001) usingSphericalPolarGrid =   /* Spherical coordinates flag ( True / False ) */
(PID.TID 0000.0001)                   F
(PID.TID 0000.0001)     ;
(PID.TID 0000.0001) usingCylindricalGrid =   /* Spherical coordinates flag ( True / False ) */
(PID.TID 0000.0001)                   F
(PID.TID 0000.0001)     ;
(PID.TID 0000.0001) Ro_SeaLevel =   /* r(1) ( units of r ) */
(PID.TID 0000.0001)                 0.000000000000000E+00
(PID.TID 0000.0001)     ;
(PID.TID 0000.0001) rkSign =   /* index orientation relative to vertical coordinate */
(PID.TID 0000.0001)                -1.000000000000000E+00
(PID.TID 0000.0001)     ;
(PID.TID 0000.0001) horiVertRatio =   /* Ratio on units : Horiz - Vertical */
(PID.TID 0000.0001)                 1.000000000000000E+00
(PID.TID 0000.0001)     ;
(PID.TID 0000.0001) drC =   /* C spacing ( units of r ) */
(PID.TID 0000.0001)                 2.500000000000000E+03       /* K =  1 */
(PID.TID 0000.0001)     ;
(PID.TID 0000.0001) drF =   /* W spacing ( units of r ) */
(PID.TID 0000.0001)                 5.000000000000000E+03       /* K =  1 */
(PID.TID 0000.0001)     ;
(PID.TID 0000.0001) delX =   /* U spacing ( m - cartesian, degrees - spherical ) */
(PID.TID 0000.0001)    31 @  5.000000000000000E+04              /* I =  1: 31 */
(PID.TID 0000.0001)     ;
(PID.TID 0000.0001) delY =   /* V spacing ( m - cartesian, degrees - spherical ) */
(PID.TID 0000.0001)    31 @  5.000000000000000E+04              /* J =  1: 31 */
(PID.TID 0000.0001)     ;
(PID.TID 0000.0001) phiMin =    /* South edge (ignored - cartesian, degrees - spherical ) */
(PID.TID 0000.0001)                 0.000000000000000E+00
(PID.TID 0000.0001)     ;
(PID.TID 0000.0001) thetaMin =    /* West edge ( ignored - cartesian, degrees - spherical ) */
(PID.TID 0000.0001)                 0.000000000000000E+00
(PID.TID 0000.0001)     ;
(PID.TID 0000.0001) rSphere =    /* Radius ( ignored - cartesian, m - spherical ) */
(PID.TID 0000.0001)                 6.370000000000000E+06
(PID.TID 0000.0001)     ;
(PID.TID 0000.0001) xcoord =   /* P-point X coord ( m - cartesian, degrees - spherical ) */
(PID.TID 0000.0001)                 2.500000000000000E+04,      /* I =  1 */
(PID.TID 0000.0001)                 7.500000000000000E+04,      /* I =  2 */
(PID.TID 0000.0001)                 1.250000000000000E+05,      /* I =  3 */
(PID.TID 0000.0001)                 1.750000000000000E+05,      /* I =  4 */
(PID.TID 0000.0001)                 2.250000000000000E+05,      /* I =  5 */
(PID.TID 0000.0001)                 2.750000000000000E+05,      /* I =  6 */
(PID.TID 0000.0001)                 3.250000000000000E+05,      /* I =  7 */
(PID.TID 0000.0001)                 3.750000000000000E+05,      /* I =  8 */
(PID.TID 0000.0001)                 4.250000000000000E+05,      /* I =  9 */
(PID.TID 0000.0001)                 4.750000000000000E+05,      /* I = 10 */
(PID.TID 0000.0001)                 5.250000000000000E+05,      /* I = 11 */
(PID.TID 0000.0001)                 5.750000000000000E+05,      /* I = 12 */
(PID.TID 0000.0001)                 6.250000000000000E+05,      /* I = 13 */
(PID.TID 0000.0001)                 6.750000000000000E+05,      /* I = 14 */
(PID.TID 0000.0001)                 7.250000000000000E+05,      /* I = 15 */
(PID.TID 0000.0001)                 7.750000000000000E+05,      /* I = 16 */
(PID.TID 0000.0001)                 8.250000000000000E+05,      /* I = 17 */
(PID.TID 0000.0001)                 8.750000000000000E+05,      /* I = 18 */
(PID.TID 0000.0001)                 9.250000000000000E+05,      /* I = 19 */
(PID.TID 0000.0001)                 9.750000000000000E+05,      /* I = 20 */
(PID.TID 0000.0001)                 1.025000000000000E+06,      /* I = 21 */
(PID.TID 0000.0001)                 1.075000000000000E+06,      /* I = 22 */
(PID.TID 0000.0001)                 1.125000000000000E+06,      /* I = 23 */
(PID.TID 0000.0001)                 1.175000000000000E+06,      /* I = 24 */
(PID.TID 0000.0001)                 1.225000000000000E+06,      /* I = 25 */
(PID.TID 0000.0001)                 1.275000000000000E+06,      /* I = 26 */
(PID.TID 0000.0001)                 1.325000000000000E+06,      /* I = 27 */
(PID.TID 0000.0001)                 1.375000000000000E+06,      /* I = 28 */
(PID.TID 0000.0001)                 1.425000000000000E+06,      /* I = 29 */
(PID.TID 0000.0001)                 1.475000000000000E+06,      /* I = 30 */
(PID.TID 0000.0001)                 1.525000000000000E+06       /* I = 31 */
(PID.TID 0000.0001)     ;
(PID.TID 0000.0001) ycoord =   /* P-point Y coord ( m - cartesian, degrees - spherical ) */
(PID.TID 0000.0001)                 2.500000000000000E+04,      /* J =  1 */
(PID.TID 0000.0001)                 7.500000000000000E+04,      /* J =  2 */
(PID.TID 0000.0001)                 1.250000000000000E+05,      /* J =  3 */
(PID.TID 0000.0001)                 1.750000000000000E+05,      /* J =  4 */
(PID.TID 0000.0001)                 2.250000000000000E+05,      /* J =  5 */
(PID.TID 0000.0001)                 2.750000000000000E+05,      /* J =  6 */
(PID.TID 0000.0001)                 3.250000000000000E+05,      /* J =  7 */
(PID.TID 0000.0001)                 3.750000000000000E+05,      /* J =  8 */
(PID.TID 0000.0001)                 4.250000000000000E+05,      /* J =  9 */
(PID.TID 0000.0001)                 4.750000000000000E+05,      /* J = 10 */
(PID.TID 0000.0001)                 5.250000000000000E+05,      /* J = 11 */
(PID.TID 0000.0001)                 5.750000000000000E+05,      /* J = 12 */
(PID.TID 0000.0001)                 6.250000000000000E+05,      /* J = 13 */
(PID.TID 0000.0001)                 6.750000000000000E+05,      /* J = 14 */
(PID.TID 0000.0001)                 7.250000000000000E+05,      /* J = 15 */
(PID.TID 0000.0001)                 7.750000000000000E+05,      /* J = 16 */
(PID.TID 0000.0001)                 8.250000000000000E+05,      /* J = 17 */
(PID.TID 0000.0001)                 8.750000000000000E+05,      /* J = 18 */
(PID.TID 0000.0001)                 9.250000000000000E+05,      /* J = 19 */
(PID.TID 0000.0001)                 9.750000000000000E+05,      /* J = 20 */
(PID.TID 0000.0001)                 1.025000000000000E+06,      /* J = 21 */
(PID.TID 0000.0001)                 1.075000000000000E+06,      /* J = 22 */
(PID.TID 0000.0001)                 1.125000000000000E+06,      /* J = 23 */
(PID.TID 0000.0001)                 1.175000000000000E+06,      /* J = 24 */
(PID.TID 0000.0001)                 1.225000000000000E+06,      /* J = 25 */
(PID.TID 0000.0001)                 1.275000000000000E+06,      /* J = 26 */
(PID.TID 0000.0001)                 1.325000000000000E+06,      /* J = 27 */
(PID.TID 0000.0001)                 1.375000000000000E+06,      /* J = 28 */
(PID.TID 0000.0001)                 1.425000000000000E+06,      /* J = 29 */
(PID.TID 0000.0001)                 1.475000000000000E+06,      /* J = 30 */
(PID.TID 0000.0001)                 1.525000000000000E+06       /* J = 31 */
(PID.TID 0000.0001)     ;
(PID.TID 0000.0001) rcoord =   /* P-point R coordinate (  units of r ) */
(PID.TID 0000.0001)                -2.500000000000000E+03       /* K =  1 */
(PID.TID 0000.0001)     ;
(PID.TID 0000.0001) rF =   /* W-Interf. R coordinate (  units of r ) */
(PID.TID 0000.0001)                 0.000000000000000E+00,      /* K =  1 */
(PID.TID 0000.0001)                -5.000000000000000E+03       /* K =  2 */
(PID.TID 0000.0001)     ;
(PID.TID 0000.0001) dxF =  /* dxF(:,1,:,1) ( m - cartesian, degrees - spherical ) */
(PID.TID 0000.0001)    31 @  5.000000000000000E+04              /* I =  1: 31 */
(PID.TID 0000.0001)     ;
(PID.TID 0000.0001) dxF =  /* dxF(1,:,1,:) ( m - cartesian, degrees - spherical ) */
(PID.TID 0000.0001)    31 @  5.000000000000000E+04              /* J =  1: 31 */
(PID.TID 0000.0001)     ;
(PID.TID 0000.0001) dyF =  /* dyF(:,1,:,1) ( m - cartesian, degrees - spherical ) */
(PID.TID 0000.0001)    31 @  5.000000000000000E+04              /* I =  1: 31 */
(PID.TID 0000.0001)     ;
(PID.TID 0000.0001) dyF =  /* dyF(1,:,1,:) ( m - cartesian, degrees - spherical ) */
(PID.TID 0000.0001)    31 @  5.000000000000000E+04              /* J =  1: 31 */
(PID.TID 0000.0001)     ;
(PID.TID 0000.0001) dxG =  /* dxG(:,1,:,1) ( m - cartesian, degrees - spherical ) */
(PID.TID 0000.0001)    31 @  5.000000000000000E+04              /* I =  1: 31 */
(PID.TID 0000.0001)     ;
(PID.TID 0000.0001) dxG =  /* dxG(1,:,1,:) ( m - cartesian, degrees - spherical ) */
(PID.TID 0000.0001)    31 @  5.000000000000000E+04              /* J =  1: 31 */
(PID.TID 0000.0001)     ;
(PID.TID 0000.0001) dyG =  /* dyG(:,1,:,1) ( m - cartesian, degrees - spherical ) */
(PID.TID 0000.0001)    31 @  5.000000000000000E+04              /* I =  1: 31 */
(PID.TID 0000.0001)     ;
(PID.TID 0000.0001) dyG =  /* dyG(1,:,1,:) ( m - cartesian, degrees - spherical ) */
(PID.TID 0000.0001)    31 @  5.000000000000000E+04              /* J =  1: 31 */
(PID.TID 0000.0001)     ;
(PID.TID 0000.0001) dxC =  /* dxC(:,1,:,1) ( m - cartesian, degrees - spherical ) */
(PID.TID 0000.0001)    31 @  5.000000000000000E+04              /* I =  1: 31 */
(PID.TID 0000.0001)     ;
(PID.TID 0000.0001) dxC =  /* dxC(1,:,1,:) ( m - cartesian, degrees - spherical ) */
(PID.TID 0000.0001)    31 @  5.000000000000000E+04              /* J =  1: 31 */
(PID.TID 0000.0001)     ;
(PID.TID 0000.0001) dyC =  /* dyC(:,1,:,1) ( m - cartesian, degrees - spherical ) */
(PID.TID 0000.0001)    31 @  5.000000000000000E+04              /* I =  1: 31 */
(PID.TID 0000.0001)     ;
(PID.TID 0000.0001) dyC =  /* dyC(1,:,1,:) ( m - cartesian, degrees - spherical ) */
(PID.TID 0000.0001)    31 @  5.000000000000000E+04              /* J =  1: 31 */
(PID.TID 0000.0001)     ;
(PID.TID 0000.0001) dxV =  /* dxV(:,1,:,1) ( m - cartesian, degrees - spherical ) */
(PID.TID 0000.0001)    31 @  5.000000000000000E+04              /* I =  1: 31 */
(PID.TID 0000.0001)     ;
(PID.TID 0000.0001) dxV =  /* dxV(1,:,1,:) ( m - cartesian, degrees - spherical ) */
(PID.TID 0000.0001)    31 @  5.000000000000000E+04              /* J =  1: 31 */
(PID.TID 0000.0001)     ;
(PID.TID 0000.0001) dyU =  /* dyU(:,1,:,1) ( m - cartesian, degrees - spherical ) */
(PID.TID 0000.0001)    31 @  5.000000000000000E+04              /* I =  1: 31 */
(PID.TID 0000.0001)     ;
(PID.TID 0000.0001) dyU =  /* dyU(1,:,1,:) ( m - cartesian, degrees - spherical ) */
(PID.TID 0000.0001)    31 @  5.000000000000000E+04              /* J =  1: 31 */
(PID.TID 0000.0001)     ;
(PID.TID 0000.0001) rA =  /* rA(:,1,:,1) ( m - cartesian, degrees - spherical ) */
(PID.TID 0000.0001)    31 @  2.500000000000000E+09              /* I =  1: 31 */
(PID.TID 0000.0001)     ;
(PID.TID 0000.0001) rA =  /* rA(1,:,1,:) ( m - cartesian, degrees - spherical ) */
(PID.TID 0000.0001)    31 @  2.500000000000000E+09              /* J =  1: 31 */
(PID.TID 0000.0001)     ;
(PID.TID 0000.0001) rAw =  /* rAw(:,1,:,1) ( m - cartesian, degrees - spherical ) */
(PID.TID 0000.0001)    31 @  2.500000000000000E+09              /* I =  1: 31 */
(PID.TID 0000.0001)     ;
(PID.TID 0000.0001) rAw =  /* rAw(1,:,1,:) ( m - cartesian, degrees - spherical ) */
(PID.TID 0000.0001)    31 @  2.500000000000000E+09              /* J =  1: 31 */
(PID.TID 0000.0001)     ;
(PID.TID 0000.0001) rAs =  /* rAs(:,1,:,1) ( m - cartesian, degrees - spherical ) */
(PID.TID 0000.0001)    31 @  2.500000000000000E+09              /* I =  1: 31 */
(PID.TID 0000.0001)     ;
(PID.TID 0000.0001) rAs =  /* rAs(1,:,1,:) ( m - cartesian, degrees - spherical ) */
(PID.TID 0000.0001)    31 @  2.500000000000000E+09              /* J =  1: 31 */
(PID.TID 0000.0001)     ;
(PID.TID 0000.0001) 
(PID.TID 0000.0001) // =======================================================
(PID.TID 0000.0001) // Model current state
(PID.TID 0000.0001) // =======================================================
(PID.TID 0000.0001) 
(PID.TID 0000.0001) // =======================================================
(PID.TID 0000.0001) // Begin MONITOR dynamic field statistics
(PID.TID 0000.0001) // =======================================================
(PID.TID 0000.0001) %MON time_tsnumber                =                200000
(PID.TID 0000.0001) %MON time_secondsf                =   4.0000000000000E+09
(PID.TID 0000.0001) %MON dynstat_eta_max              =   2.1785897865594E-01
(PID.TID 0000.0001) %MON dynstat_eta_min              =  -9.2594533267691E-02
(PID.TID 0000.0001) %MON dynstat_eta_mean             =  -8.3472183666459E-06
(PID.TID 0000.0001) %MON dynstat_eta_sd               =   7.6574659699777E-02
(PID.TID 0000.0001) %MON dynstat_eta_del2             =   1.5101959851848E-03
(PID.TID 0000.0001) %MON dynstat_uvel_max             =   7.0868966374318E-02
(PID.TID 0000.0001) %MON dynstat_uvel_min             =  -5.1735246373737E-02
(PID.TID 0000.0001) %MON dynstat_uvel_mean            =   3.8479431497424E-10
(PID.TID 0000.0001) %MON dynstat_uvel_sd              =   2.3065548220375E-02
(PID.TID 0000.0001) %MON dynstat_uvel_del2            =   6.4408284497952E-04
(PID.TID 0000.0001) %MON dynstat_vvel_max             =   1.6769772804388E-01
(PID.TID 0000.0001) %MON dynstat_vvel_min             =  -5.5599180849815E-02
(PID.TID 0000.0001) %MON dynstat_vvel_mean            =  -3.4790032297163E-10
(PID.TID 0000.0001) %MON dynstat_vvel_sd              =   3.7608824106565E-02
(PID.TID 0000.0001) %MON dynstat_vvel_del2            =   1.6259699447259E-03
(PID.TID 0000.0001) %MON dynstat_wvel_max             =   2.5007691569626E-10
(PID.TID 0000.0001) %MON dynstat_wvel_min             =  -2.4463438512757E-10
(PID.TID 0000.0001) %MON dynstat_wvel_mean            =   8.2514292094692E-21
(PID.TID 0000.0001) %MON dynstat_wvel_sd              =   8.4348255593201E-11
(PID.TID 0000.0001) %MON dynstat_wvel_del2            =   3.6888856562121E-11
(PID.TID 0000.0001) %MON dynstat_theta_max            =   2.0000000000000E+01
(PID.TID 0000.0001) %MON dynstat_theta_min            =   2.0000000000000E+01
(PID.TID 0000.0001) %MON dynstat_theta_mean           =   2.0000000000000E+01
(PID.TID 0000.0001) %MON dynstat_theta_sd             =   0.0000000000000E+00
(PID.TID 0000.0001) %MON dynstat_theta_del2           =   0.0000000000000E+00
(PID.TID 0000.0001) %MON dynstat_salt_max             =   1.0000000000000E+01
(PID.TID 0000.0001) %MON dynstat_salt_min             =   1.0000000000000E+01
(PID.TID 0000.0001) %MON dynstat_salt_mean            =   1.0000000000000E+01
(PID.TID 0000.0001) %MON dynstat_salt_sd              =   0.0000000000000E+00
(PID.TID 0000.0001) %MON dynstat_salt_del2            =   0.0000000000000E+00
(PID.TID 0000.0001) %MON advcfl_uvel_max              =   2.8347586549727E-02
(PID.TID 0000.0001) %MON advcfl_vvel_max              =   6.7079091217551E-02
(PID.TID 0000.0001) %MON advcfl_wvel_max              =   2.0006153255701E-09
(PID.TID 0000.0001) %MON advcfl_W_hf_max              =   0.0000000000000E+00
(PID.TID 0000.0001) %MON pe_b_mean                    =   5.7522686848343E-06
(PID.TID 0000.0001) %MON ke_max                       =   1.4004695716874E-02
(PID.TID 0000.0001) %MON ke_mean                      =   9.4023102056732E-04
(PID.TID 0000.0001) %MON ke_vol                       =   1.1062500000000E+16
(PID.TID 0000.0001) %MON vort_r_min                   =  -1.3833759337772E-06
(PID.TID 0000.0001) %MON vort_r_max                   =   1.9603605988726E-06
(PID.TID 0000.0001) %MON vort_a_mean                  =   1.0735859124867E-04
(PID.TID 0000.0001) %MON vort_a_sd                    =   4.4130473007937E-06
(PID.TID 0000.0001) %MON vort_p_mean                  =   1.1765497076023E-04
(PID.TID 0000.0001) %MON vort_p_sd                    =   5.6390875812523E-05
(PID.TID 0000.0001) %MON surfExpan_theta_mean         =   1.6502858439492E-19
(PID.TID 0000.0001) %MON surfExpan_salt_mean          =   8.2514292197460E-20
(PID.TID 0000.0001) // =======================================================
(PID.TID 0000.0001) // End MONITOR dynamic field statistics
(PID.TID 0000.0001) // =======================================================
 cg2d: Sum(rhs),rhsMax =   1.29178857595467E-05  7.14831396830014E-01
(PID.TID 0000.0001)                    cg2d_init_res =    1.18737609101992E-06
(PID.TID 0000.0001)                       cg2d_iters =    12
(PID.TID 0000.0001)                         cg2d_res =    9.80030121450711E-08
(PID.TID 0000.0001) // =======================================================
(PID.TID 0000.0001) // Begin MONITOR dynamic field statistics
(PID.TID 0000.0001) // =======================================================
(PID.TID 0000.0001) %MON time_tsnumber                =                200001
(PID.TID 0000.0001) %MON time_secondsf                =   4.0000200000000E+09
(PID.TID 0000.0001) %MON dynstat_eta_max              =   2.1785897698663E-01
(PID.TID 0000.0001) %MON dynstat_eta_min              =  -9.2594504756348E-02
(PID.TID 0000.0001) %MON dynstat_eta_mean             =  -8.3474823363410E-06
(PID.TID 0000.0001) %MON dynstat_eta_sd               =   7.6574664295944E-02
(PID.TID 0000.0001) %MON dynstat_eta_del2             =   1.5101960936734E-03
(PID.TID 0000.0001) %MON dynstat_uvel_max             =   7.0868962871165E-02
(PID.TID 0000.0001) %MON dynstat_uvel_min             =  -5.1735249995004E-02
(PID.TID 0000.0001) %MON dynstat_uvel_mean            =  -3.0969828630396E-10
(PID.TID 0000.0001) %MON dynstat_uvel_sd              =   2.3065548369538E-02
(PID.TID 0000.0001) %MON dynstat_uvel_del2            =   6.4408277703333E-04
(PID.TID 0000.0001) %MON dynstat_vvel_max             =   1.6769772979212E-01
(PID.TID 0000.0001) %MON dynstat_vvel_min             =  -5.5599181707757E-02
(PID.TID 0000.0001) %MON dynstat_vvel_mean            =  -2.1260621651301E-09
(PID.TID 0000.0001) %MON dynstat_vvel_sd              =   3.7608824990142E-02
(PID.TID 0000.0001) %MON dynstat_vvel_del2            =   1.6259699288049E-03
(PID.TID 0000.0001) %MON dynstat_wvel_max             =   2.4764107977971E-10
(PID.TID 0000.0001) %MON dynstat_wvel_min             =  -4.1070490945131E-10
(PID.TID 0000.0001) %MON dynstat_wvel_mean            =   6.1734650536614E-21
(PID.TID 0000.0001) %MON dynstat_wvel_sd              =   9.4198834505732E-11
(PID.TID 0000.0001) %MON dynstat_wvel_del2            =   4.0842429813272E-11
(PID.TID 0000.0001) %MON dynstat_theta_max            =   2.0000000000000E+01
(PID.TID 0000.0001) %MON dynstat_theta_min            =   2.0000000000000E+01
(PID.TID 0000.0001) %MON dynstat_theta_mean           =   2.0000000000000E+01
(PID.TID 0000.0001) %MON dynstat_theta_sd             =   0.0000000000000E+00
(PID.TID 0000.0001) %MON dynstat_theta_del2           =   0.0000000000000E+00
(PID.TID 0000.0001) %MON dynstat_salt_max             =   1.0000000000000E+01
(PID.TID 0000.0001) %MON dynstat_salt_min             =   1.0000000000000E+01
(PID.TID 0000.0001) %MON dynstat_salt_mean            =   1.0000000000000E+01
(PID.TID 0000.0001) %MON dynstat_salt_sd              =   0.0000000000000E+00
(PID.TID 0000.0001) %MON dynstat_salt_del2            =   0.0000000000000E+00
(PID.TID 0000.0001) %MON advcfl_uvel_max              =   2.8347585148466E-02
(PID.TID 0000.0001) %MON advcfl_vvel_max              =   6.7079091916849E-02
(PID.TID 0000.0001) %MON advcfl_wvel_max              =   3.2856392756104E-09
(PID.TID 0000.0001) %MON advcfl_W_hf_max              =   0.0000000000000E+00
(PID.TID 0000.0001) %MON pe_b_mean                    =   5.7522693753644E-06
(PID.TID 0000.0001) %MON ke_max                       =   1.4004695949551E-02
(PID.TID 0000.0001) %MON ke_mean                      =   9.4023105599508E-04
(PID.TID 0000.0001) %MON ke_vol                       =   1.1062500000000E+16
(PID.TID 0000.0001) %MON vort_r_min                   =  -1.3833758984423E-06
(PID.TID 0000.0001) %MON vort_r_max                   =   1.9603605703614E-06
(PID.TID 0000.0001) %MON vort_a_mean                  =   1.0735859124867E-04
(PID.TID 0000.0001) %MON vort_a_sd                    =   4.4130472993007E-06
(PID.TID 0000.0001) %MON vort_p_mean                  =   1.1765497076023E-04
(PID.TID 0000.0001) %MON vort_p_sd                    =   5.6390875807088E-05
(PID.TID 0000.0001) %MON surfExpan_theta_mean         =   1.2346930067493E-19
(PID.TID 0000.0001) %MON surfExpan_salt_mean          =   6.1734650337464E-20
(PID.TID 0000.0001) // =======================================================
(PID.TID 0000.0001) // End MONITOR dynamic field statistics
(PID.TID 0000.0001) // =======================================================
 Writing explicit matrix : 1 1 1
 Writing implicit matrix : 1 1 1
 cg2d: Sum(rhs),rhsMax =   1.29182940446001E-05  7.14831409113866E-01
(PID.TID 0000.0001)                    cg2d_init_res =    1.17016480837075E-06
(PID.TID 0000.0001)                       cg2d_iters =    17
(PID.TID 0000.0001)                         cg2d_res =    8.01765681013682E-08
(PID.TID 0000.0001) // =======================================================
(PID.TID 0000.0001) // Begin MONITOR dynamic field statistics
(PID.TID 0000.0001) // =======================================================
(PID.TID 0000.0001) %MON time_tsnumber                =                200002
(PID.TID 0000.0001) %MON time_secondsf                =   4.0000400000000E+09
(PID.TID 0000.0001) %MON dynstat_eta_max              =   2.1785901123444E-01
(PID.TID 0000.0001) %MON dynstat_eta_min              =  -9.2594502499767E-02
(PID.TID 0000.0001) %MON dynstat_eta_mean             =  -8.3472844558237E-06
(PID.TID 0000.0001) %MON dynstat_eta_sd               =   7.6574675727548E-02
(PID.TID 0000.0001) %MON dynstat_eta_del2             =   1.5101960166437E-03
(PID.TID 0000.0001) %MON dynstat_uvel_max             =   7.0868963285239E-02
(PID.TID 0000.0001) %MON dynstat_uvel_min             =  -5.1735244543210E-02
(PID.TID 0000.0001) %MON dynstat_uvel_mean            =  -3.2511476081357E-10
(PID.TID 0000.0001) %MON dynstat_uvel_sd              =   2.3065548754140E-02
(PID.TID 0000.0001) %MON dynstat_uvel_del2            =   6.4408278888938E-04
(PID.TID 0000.0001) %MON dynstat_vvel_max             =   1.6769773366640E-01
(PID.TID 0000.0001) %MON dynstat_vvel_min             =  -5.5599180900710E-02
(PID.TID 0000.0001) %MON dynstat_vvel_mean            =   1.3522315490027E-10
(PID.TID 0000.0001) %MON dynstat_vvel_sd              =   3.7608824943704E-02
(PID.TID 0000.0001) %MON dynstat_vvel_del2            =   1.6259699517013E-03
(PID.TID 0000.0001) %MON dynstat_wvel_max             =   2.4668354652822E-10
(PID.TID 0000.0001) %MON dynstat_wvel_min             =  -3.2037678342313E-10
(PID.TID 0000.0001) %MON dynstat_wvel_mean            =   9.6272840296145E-22
(PID.TID 0000.0001) %MON dynstat_wvel_sd              =   7.7071974194030E-11
(PID.TID 0000.0001) %MON dynstat_wvel_del2            =   3.4897447600021E-11
(PID.TID 0000.0001) %MON dynstat_theta_max            =   2.0000000000000E+01
(PID.TID 0000.0001) %MON dynstat_theta_min            =   2.0000000000000E+01
(PID.TID 0000.0001) %MON dynstat_theta_mean           =   2.0000000000000E+01
(PID.TID 0000.0001) %MON dynstat_theta_sd             =   0.0000000000000E+00
(PID.TID 0000.0001) %MON dynstat_theta_del2           =   0.0000000000000E+00
(PID.TID 0000.0001) %MON dynstat_salt_max             =   1.0000000000000E+01
(PID.TID 0000.0001) %MON dynstat_salt_min             =   1.0000000000000E+01
(PID.TID 0000.0001) %MON dynstat_salt_mean            =   1.0000000000000E+01
(PID.TID 0000.0001) %MON dynstat_salt_sd              =   0.0000000000000E+00
(PID.TID 0000.0001) %MON dynstat_salt_del2            =   0.0000000000000E+00
(PID.TID 0000.0001) %MON advcfl_uvel_max              =   2.8347585314096E-02
(PID.TID 0000.0001) %MON advcfl_vvel_max              =   6.7079093466560E-02
(PID.TID 0000.0001) %MON advcfl_wvel_max              =   2.5630142673850E-09
(PID.TID 0000.0001) %MON advcfl_W_hf_max              =   0.0000000000000E+00
(PID.TID 0000.0001) %MON pe_b_mean                    =   5.7522710928395E-06
(PID.TID 0000.0001) %MON ke_max                       =   1.4004696744475E-02
(PID.TID 0000.0001) %MON ke_mean                      =   9.4023106287814E-04
(PID.TID 0000.0001) %MON ke_vol                       =   1.1062500000000E+16
(PID.TID 0000.0001) %MON vort_r_min                   =  -1.3833759183815E-06
(PID.TID 0000.0001) %MON vort_r_max                   =   1.9603606867501E-06
(PID.TID 0000.0001) %MON vort_a_mean                  =   1.0735859124867E-04
(PID.TID 0000.0001) %MON vort_a_sd                    =   4.4130472998718E-06
(PID.TID 0000.0001) %MON vort_p_mean                  =   1.1765497076023E-04
(PID.TID 0000.0001) %MON vort_p_sd                    =   5.6390875806388E-05
(PID.TID 0000.0001) %MON surfExpan_theta_mean         =   1.9254568059229E-20
(PID.TID 0000.0001) %MON surfExpan_salt_mean          =   9.6272840296145E-21
(PID.TID 0000.0001) // =======================================================
(PID.TID 0000.0001) // End MONITOR dynamic field statistics
(PID.TID 0000.0001) // =======================================================
 Writing explicit matrix : 1 2 1
 Writing implicit matrix : 1 2 1
 cg2d: Sum(rhs),rhsMax =   1.29179873204557E-05  7.14831436211391E-01
(PID.TID 0000.0001)                    cg2d_init_res =    1.16678716121625E-06
(PID.TID 0000.0001)                       cg2d_iters =    17
(PID.TID 0000.0001)                         cg2d_res =    9.60155225921634E-08
(PID.TID 0000.0001) // =======================================================
(PID.TID 0000.0001) // Begin MONITOR dynamic field statistics
(PID.TID 0000.0001) // =======================================================
(PID.TID 0000.0001) %MON time_tsnumber                =                200003
(PID.TID 0000.0001) %MON time_secondsf                =   4.0000600000000E+09
(PID.TID 0000.0001) %MON dynstat_eta_max              =   2.1785899266340E-01
(PID.TID 0000.0001) %MON dynstat_eta_min              =  -9.2594517347060E-02
(PID.TID 0000.0001) %MON dynstat_eta_mean             =  -8.3475494280110E-06
(PID.TID 0000.0001) %MON dynstat_eta_sd               =   7.6574666345089E-02
(PID.TID 0000.0001) %MON dynstat_eta_del2             =   1.5101960764780E-03
(PID.TID 0000.0001) %MON dynstat_uvel_max             =   7.0868961866603E-02
(PID.TID 0000.0001) %MON dynstat_uvel_min             =  -5.1735243795034E-02
(PID.TID 0000.0001) %MON dynstat_uvel_mean            =   5.1237291556054E-10
(PID.TID 0000.0001) %MON dynstat_uvel_sd              =   2.3065548350721E-02
(PID.TID 0000.0001) %MON dynstat_uvel_del2            =   6.4408271646423E-04
(PID.TID 0000.0001) %MON dynstat_vvel_max             =   1.6769773251636E-01
(PID.TID 0000.0001) %MON dynstat_vvel_min             =  -5.5599177397033E-02
(PID.TID 0000.0001) %MON dynstat_vvel_mean            =  -1.2601407606926E-10
(PID.TID 0000.0001) %MON dynstat_vvel_sd              =   3.7608824039992E-02
(PID.TID 0000.0001) %MON dynstat_vvel_del2            =   1.6259699567303E-03
(PID.TID 0000.0001) %MON dynstat_wvel_max             =   3.8420641459525E-10
(PID.TID 0000.0001) %MON dynstat_wvel_min             =  -2.6656309552491E-10
(PID.TID 0000.0001) %MON dynstat_wvel_mean            =   1.9143578669748E-21
(PID.TID 0000.0001) %MON dynstat_wvel_sd              =   9.2298091346758E-11
(PID.TID 0000.0001) %MON dynstat_wvel_del2            =   4.1228952621224E-11
(PID.TID 0000.0001) %MON dynstat_theta_max            =   2.0000000000000E+01
(PID.TID 0000.0001) %MON dynstat_theta_min            =   2.0000000000000E+01
(PID.TID 0000.0001) %MON dynstat_theta_mean           =   2.0000000000000E+01
(PID.TID 0000.0001) %MON dynstat_theta_sd             =   0.0000000000000E+00
(PID.TID 0000.0001) %MON dynstat_theta_del2           =   0.0000000000000E+00
(PID.TID 0000.0001) %MON dynstat_salt_max             =   1.0000000000000E+01
(PID.TID 0000.0001) %MON dynstat_salt_min             =   1.0000000000000E+01
(PID.TID 0000.0001) %MON dynstat_salt_mean            =   1.0000000000000E+01
(PID.TID 0000.0001) %MON dynstat_salt_sd              =   0.0000000000000E+00
(PID.TID 0000.0001) %MON dynstat_salt_del2            =   0.0000000000000E+00
(PID.TID 0000.0001) %MON advcfl_uvel_max              =   2.8347584746641E-02
(PID.TID 0000.0001) %MON advcfl_vvel_max              =   6.7079093006543E-02
(PID.TID 0000.0001) %MON advcfl_wvel_max              =   3.0736513167620E-09
(PID.TID 0000.0001) %MON advcfl_W_hf_max              =   0.0000000000000E+00
(PID.TID 0000.0001) %MON pe_b_mean                    =   5.7522696832280E-06
(PID.TID 0000.0001) %MON ke_max                       =   1.4004696439068E-02
(PID.TID 0000.0001) %MON ke_mean                      =   9.4023102105307E-04
(PID.TID 0000.0001) %MON ke_vol                       =   1.1062500000000E+16
(PID.TID 0000.0001) %MON vort_r_min                   =  -1.3833759247736E-06
(PID.TID 0000.0001) %MON vort_r_max                   =   1.9603605628026E-06
(PID.TID 0000.0001) %MON vort_a_mean                  =   1.0735859124867E-04
(PID.TID 0000.0001) %MON vort_a_sd                    =   4.4130473009715E-06
(PID.TID 0000.0001) %MON vort_p_mean                  =   1.1765497076023E-04
(PID.TID 0000.0001) %MON vort_p_sd                    =   5.6390875806486E-05
(PID.TID 0000.0001) %MON surfExpan_theta_mean         =   3.8287157349131E-20
(PID.TID 0000.0001) %MON surfExpan_salt_mean          =   1.9143578674565E-20
(PID.TID 0000.0001) // =======================================================
(PID.TID 0000.0001) // End MONITOR dynamic field statistics
(PID.TID 0000.0001) // =======================================================
 Writing explicit matrix : 1 3 1
 Writing implicit matrix : 1 3 1
 cg2d: Sum(rhs),rhsMax =   1.29183979226902E-05  7.14831406463999E-01
(PID.TID 0000.0001)                    cg2d_init_res =    1.00714383129705E-06
(PID.TID 0000.0001)                       cg2d_iters =    13
(PID.TID 0000.0001)                         cg2d_res =    9.27800093268362E-08
(PID.TID 0000.0001) // =======================================================
(PID.TID 0000.0001) // Begin MONITOR dynamic field statistics
(PID.TID 0000.0001) // =======================================================
(PID.TID 0000.0001) %MON time_tsnumber                =                200004
(PID.TID 0000.0001) %MON time_secondsf                =   4.0000800000000E+09
(PID.TID 0000.0001) %MON dynstat_eta_max              =   2.1785898191342E-01
(PID.TID 0000.0001) %MON dynstat_eta_min              =  -9.2594517219513E-02
(PID.TID 0000.0001) %MON dynstat_eta_mean             =  -8.3472375531944E-06
(PID.TID 0000.0001) %MON dynstat_eta_sd               =   7.6574660860784E-02
(PID.TID 0000.0001) %MON dynstat_eta_del2             =   1.5101960048114E-03
(PID.TID 0000.0001) %MON dynstat_uvel_max             =   7.0868960141736E-02
(PID.TID 0000.0001) %MON dynstat_uvel_min             =  -5.1735249377185E-02
(PID.TID 0000.0001) %MON dynstat_uvel_mean            =  -2.4376802706409E-10
(PID.TID 0000.0001) %MON dynstat_uvel_sd              =   2.3065549692281E-02
(PID.TID 0000.0001) %MON dynstat_uvel_del2            =   6.4408276963259E-04
(PID.TID 0000.0001) %MON dynstat_vvel_max             =   1.6769773266080E-01
(PID.TID 0000.0001) %MON dynstat_vvel_min             =  -5.5599188258601E-02
(PID.TID 0000.0001) %MON dynstat_vvel_mean            =  -1.9581025315250E-09
(PID.TID 0000.0001) %MON dynstat_vvel_sd              =   3.7608825808309E-02
(PID.TID 0000.0001) %MON dynstat_vvel_del2            =   1.6259699681986E-03
(PID.TID 0000.0001) %MON dynstat_wvel_max             =   2.9360996447504E-10
(PID.TID 0000.0001) %MON dynstat_wvel_min             =  -4.0912350434810E-10
(PID.TID 0000.0001) %MON dynstat_wvel_mean            =   1.3633582498983E-20
(PID.TID 0000.0001) %MON dynstat_wvel_sd              =   8.9178887580843E-11
(PID.TID 0000.0001) %MON dynstat_wvel_del2            =   3.9047003472103E-11
(PID.TID 0000.0001) %MON dynstat_theta_max            =   2.0000000000000E+01
(PID.TID 0000.0001) %MON dynstat_theta_min            =   2.0000000000000E+01
(PID.TID 0000.0001) %MON dynstat_theta_mean           =   2.0000000000000E+01
(PID.TID 0000.0001) %MON dynstat_theta_sd             =   0.0000000000000E+00
(PID.TID 0000.0001) %MON dynstat_theta_del2           =   0.0000000000000E+00
(PID.TID 0000.0001) %MON dynstat_salt_max             =   1.0000000000000E+01
(PID.TID 0000.0001) %MON dynstat_salt_min             =   1.0000000000000E+01
(PID.TID 0000.0001) %MON dynstat_salt_mean            =   1.0000000000000E+01
(PID.TID 0000.0001) %MON dynstat_salt_sd              =   0.0000000000000E+00
(PID.TID 0000.0001) %MON dynstat_salt_del2            =   0.0000000000000E+00
(PID.TID 0000.0001) %MON advcfl_uvel_max              =   2.8347584056695E-02
(PID.TID 0000.0001) %MON advcfl_vvel_max              =   6.7079093064319E-02
(PID.TID 0000.0001) %MON advcfl_wvel_max              =   3.2729880347848E-09
(PID.TID 0000.0001) %MON advcfl_W_hf_max              =   0.0000000000000E+00
(PID.TID 0000.0001) %MON pe_b_mean                    =   5.7522688592637E-06
(PID.TID 0000.0001) %MON ke_max                       =   1.4004696598940E-02
(PID.TID 0000.0001) %MON ke_mean                      =   9.4023111519785E-04
(PID.TID 0000.0001) %MON ke_vol                       =   1.1062500000000E+16
(PID.TID 0000.0001) %MON vort_r_min                   =  -1.3833758916884E-06
(PID.TID 0000.0001) %MON vort_r_max                   =   1.9603606702113E-06
(PID.TID 0000.0001) %MON vort_a_mean                  =   1.0735859124867E-04
(PID.TID 0000.0001) %MON vort_a_sd                    =   4.4130473004104E-06
(PID.TID 0000.0001) %MON vort_p_mean                  =   1.1765497076023E-04
(PID.TID 0000.0001) %MON vort_p_sd                    =   5.6390875807409E-05
(PID.TID 0000.0001) %MON surfExpan_theta_mean         =   2.7267164997967E-19
(PID.TID 0000.0001) %MON surfExpan_salt_mean          =   1.3633582498983E-19
(PID.TID 0000.0001) // =======================================================
(PID.TID 0000.0001) // End MONITOR dynamic field statistics
(PID.TID 0000.0001) // =======================================================
 Writing explicit matrix : 1 4 1
 Writing implicit matrix : 1 4 1
 cg2d: Sum(rhs),rhsMax =   1.29179148384319E-05  7.14831431051183E-01
(PID.TID 0000.0001)                    cg2d_init_res =    1.17107067662743E-06
(PID.TID 0000.0001)                       cg2d_iters =    19
(PID.TID 0000.0001)                         cg2d_res =    6.97646062487922E-08
(PID.TID 0000.0001) // =======================================================
(PID.TID 0000.0001) // Begin MONITOR dynamic field statistics
(PID.TID 0000.0001) // =======================================================
(PID.TID 0000.0001) %MON time_tsnumber                =                200005
(PID.TID 0000.0001) %MON time_secondsf                =   4.0001000000000E+09
(PID.TID 0000.0001) %MON dynstat_eta_max              =   2.1785902732704E-01
(PID.TID 0000.0001) %MON dynstat_eta_min              =  -9.2594507560531E-02
(PID.TID 0000.0001) %MON dynstat_eta_mean             =  -8.3475311735216E-06
(PID.TID 0000.0001) %MON dynstat_eta_sd               =   7.6574681716266E-02
(PID.TID 0000.0001) %MON dynstat_eta_del2             =   1.5101960881379E-03
(PID.TID 0000.0001) %MON dynstat_uvel_max             =   7.0868961106711E-02
(PID.TID 0000.0001) %MON dynstat_uvel_min             =  -5.1735243747490E-02
(PID.TID 0000.0001) %MON dynstat_uvel_mean            =  -3.7239080193057E-10
(PID.TID 0000.0001) %MON dynstat_uvel_sd              =   2.3065548180546E-02
(PID.TID 0000.0001) %MON dynstat_uvel_del2            =   6.4408278058108E-04
(PID.TID 0000.0001) %MON dynstat_vvel_max             =   1.6769773484969E-01
(PID.TID 0000.0001) %MON dynstat_vvel_min             =  -5.5599188084811E-02
(PID.TID 0000.0001) %MON dynstat_vvel_mean            =   1.1283010562598E-10
(PID.TID 0000.0001) %MON dynstat_vvel_sd              =   3.7608825000703E-02
(PID.TID 0000.0001) %MON dynstat_vvel_del2            =   1.6259699502017E-03
(PID.TID 0000.0001) %MON dynstat_wvel_max             =   2.2239061910659E-10
(PID.TID 0000.0001) %MON dynstat_wvel_min             =  -1.9653504304588E-10
(PID.TID 0000.0001) %MON dynstat_wvel_mean            =   4.2401979285875E-21
(PID.TID 0000.0001) %MON dynstat_wvel_sd              =   6.7069704539509E-11
(PID.TID 0000.0001) %MON dynstat_wvel_del2            =   2.9393666932014E-11
(PID.TID 0000.0001) %MON dynstat_theta_max            =   2.0000000000000E+01
(PID.TID 0000.0001) %MON dynstat_theta_min            =   2.0000000000000E+01
(PID.TID 0000.0001) %MON dynstat_theta_mean           =   2.0000000000000E+01
(PID.TID 0000.0001) %MON dynstat_theta_sd             =   0.0000000000000E+00
(PID.TID 0000.0001) %MON dynstat_theta_del2           =   0.0000000000000E+00
(PID.TID 0000.0001) %MON dynstat_salt_max             =   1.0000000000000E+01
(PID.TID 0000.0001) %MON dynstat_salt_min             =   1.0000000000000E+01
(PID.TID 0000.0001) %MON dynstat_salt_mean            =   1.0000000000000E+01
(PID.TID 0000.0001) %MON dynstat_salt_sd              =   0.0000000000000E+00
(PID.TID 0000.0001) %MON dynstat_salt_del2            =   0.0000000000000E+00
(PID.TID 0000.0001) %MON advcfl_uvel_max              =   2.8347584442685E-02
(PID.TID 0000.0001) %MON advcfl_vvel_max              =   6.7079093939875E-02
(PID.TID 0000.0001) %MON advcfl_wvel_max              =   1.7791249528527E-09
(PID.TID 0000.0001) %MON advcfl_W_hf_max              =   0.0000000000000E+00
(PID.TID 0000.0001) %MON pe_b_mean                    =   5.7522719925857E-06
(PID.TID 0000.0001) %MON ke_max                       =   1.4004696805575E-02
(PID.TID 0000.0001) %MON ke_mean                      =   9.4023105216736E-04
(PID.TID 0000.0001) %MON ke_vol                       =   1.1062500000000E+16
(PID.TID 0000.0001) %MON vort_r_min                   =  -1.3833759598705E-06
(PID.TID 0000.0001) %MON vort_r_max                   =   1.9603606322758E-06
(PID.TID 0000.0001) %MON vort_a_mean                  =   1.0735859124867E-04
(PID.TID 0000.0001) %MON vort_a_sd                    =   4.4130472999796E-06
(PID.TID 0000.0001) %MON vort_p_mean                  =   1.1765497076023E-04
(PID.TID 0000.0001) %MON vort_p_sd                    =   5.6390875804351E-05
(PID.TID 0000.0001) %MON surfExpan_theta_mean         =   8.4803957754425E-20
(PID.TID 0000.0001) %MON surfExpan_salt_mean          =   4.2401978877213E-20
(PID.TID 0000.0001) // =======================================================
(PID.TID 0000.0001) // End MONITOR dynamic field statistics
(PID.TID 0000.0001) // =======================================================
 Writing explicit matrix : 1 5 1
 Writing implicit matrix : 1 5 1
 cg2d: Sum(rhs),rhsMax =   1.29183692889941E-05  7.14831428086821E-01
(PID.TID 0000.0001)                    cg2d_init_res =    1.28565905372300E-06
(PID.TID 0000.0001)                       cg2d_iters =    19
(PID.TID 0000.0001)                         cg2d_res =    8.56127607128416E-08
(PID.TID 0000.0001) // =======================================================
(PID.TID 0000.0001) // Begin MONITOR dynamic field statistics
(PID.TID 0000.0001) // =======================================================
(PID.TID 0000.0001) %MON time_tsnumber                =                200006
(PID.TID 0000.0001) %MON time_secondsf                =   4.0001200000000E+09
(PID.TID 0000.0001) %MON dynstat_eta_max              =   2.1785900288036E-01
(PID.TID 0000.0001) %MON dynstat_eta_min              =  -9.2594511076651E-02
(PID.TID 0000.0001) %MON dynstat_eta_mean             =  -8.3470830990835E-06
(PID.TID 0000.0001) %MON dynstat_eta_sd               =   7.6574661234563E-02
(PID.TID 0000.0001) %MON dynstat_eta_del2             =   1.5101959754559E-03
(PID.TID 0000.0001) %MON dynstat_uvel_max             =   7.0868966158533E-02
(PID.TID 0000.0001) %MON dynstat_uvel_min             =  -5.1735239645686E-02
(PID.TID 0000.0001) %MON dynstat_uvel_mean            =   3.2506608828325E-10
(PID.TID 0000.0001) %MON dynstat_uvel_sd              =   2.3065548296737E-02
(PID.TID 0000.0001) %MON dynstat_uvel_del2            =   6.4408277509124E-04
(PID.TID 0000.0001) %MON dynstat_vvel_max             =   1.6769773824248E-01
(PID.TID 0000.0001) %MON dynstat_vvel_min             =  -5.5599185452787E-02
(PID.TID 0000.0001) %MON dynstat_vvel_mean            =   9.8431470541435E-11
(PID.TID 0000.0001) %MON dynstat_vvel_sd              =   3.7608825382468E-02
(PID.TID 0000.0001) %MON dynstat_vvel_del2            =   1.6259700071435E-03
(PID.TID 0000.0001) %MON dynstat_wvel_max             =   2.9895874056965E-10
(PID.TID 0000.0001) %MON dynstat_wvel_min             =  -2.8704261370003E-10
(PID.TID 0000.0001) %MON dynstat_wvel_mean            =   3.6671648517588E-21
(PID.TID 0000.0001) %MON dynstat_wvel_sd              =   8.2304087375199E-11
(PID.TID 0000.0001) %MON dynstat_wvel_del2            =   3.6659603153986E-11
(PID.TID 0000.0001) %MON dynstat_theta_max            =   2.0000000000000E+01
(PID.TID 0000.0001) %MON dynstat_theta_min            =   2.0000000000000E+01
(PID.TID 0000.0001) %MON dynstat_theta_mean           =   2.0000000000000E+01
(PID.TID 0000.0001) %MON dynstat_theta_sd             =   0.0000000000000E+00
(PID.TID 0000.0001) %MON dynstat_theta_del2           =   0.0000000000000E+00
(PID.TID 0000.0001) %MON dynstat_salt_max             =   1.0000000000000E+01
(PID.TID 0000.0001) %MON dynstat_salt_min             =   1.0000000000000E+01
(PID.TID 0000.0001) %MON dynstat_salt_mean            =   1.0000000000000E+01
(PID.TID 0000.0001) %MON dynstat_salt_sd              =   0.0000000000000E+00
(PID.TID 0000.0001) %MON dynstat_salt_del2            =   0.0000000000000E+00
(PID.TID 0000.0001) %MON advcfl_uvel_max              =   2.8347586463413E-02
(PID.TID 0000.0001) %MON advcfl_vvel_max              =   6.7079095296993E-02
(PID.TID 0000.0001) %MON advcfl_wvel_max              =   2.3916699245572E-09
(PID.TID 0000.0001) %MON advcfl_W_hf_max              =   0.0000000000000E+00
(PID.TID 0000.0001) %MON pe_b_mean                    =   5.7522689154175E-06
(PID.TID 0000.0001) %MON ke_max                       =   1.4004697420082E-02
(PID.TID 0000.0001) %MON ke_mean                      =   9.4023106862756E-04
(PID.TID 0000.0001) %MON ke_vol                       =   1.1062500000000E+16
(PID.TID 0000.0001) %MON vort_r_min                   =  -1.3833760157439E-06
(PID.TID 0000.0001) %MON vort_r_max                   =   1.9603606778246E-06
(PID.TID 0000.0001) %MON vort_a_mean                  =   1.0735859124867E-04
(PID.TID 0000.0001) %MON vort_a_sd                    =   4.4130473019324E-06
(PID.TID 0000.0001) %MON vort_p_mean                  =   1.1765497076023E-04
(PID.TID 0000.0001) %MON vort_p_sd                    =   5.6390875806540E-05
(PID.TID 0000.0001) %MON surfExpan_theta_mean         =   7.3343296232302E-20
(PID.TID 0000.0001) %MON surfExpan_salt_mean          =   3.6671648116151E-20
(PID.TID 0000.0001) // =======================================================
(PID.TID 0000.0001) // End MONITOR dynamic field statistics
(PID.TID 0000.0001) // =======================================================
 Writing explicit matrix : 1 6 1
 Writing implicit matrix : 1 6 1
 cg2d: Sum(rhs),rhsMax =   1.29176754180994E-05  7.14831452448159E-01
(PID.TID 0000.0001)                    cg2d_init_res =    1.00898116478137E-06
(PID.TID 0000.0001)                       cg2d_iters =    12
(PID.TID 0000.0001)                         cg2d_res =    8.56121991309988E-08
(PID.TID 0000.0001) // =======================================================
(PID.TID 0000.0001) // Begin MONITOR dynamic field statistics
(PID.TID 0000.0001) // =======================================================
(PID.TID 0000.0001) %MON time_tsnumber                =                200007
(PID.TID 0000.0001) %MON time_secondsf                =   4.0001400000000E+09
(PID.TID 0000.0001) %MON dynstat_eta_max              =   2.1785900384354E-01
(PID.TID 0000.0001) %MON dynstat_eta_min              =  -9.2594517423043E-02
(PID.TID 0000.0001) %MON dynstat_eta_mean             =  -8.3473803446055E-06
(PID.TID 0000.0001) %MON dynstat_eta_sd               =   7.6574666126631E-02
(PID.TID 0000.0001) %MON dynstat_eta_del2             =   1.5101960444399E-03
(PID.TID 0000.0001) %MON dynstat_uvel_max             =   7.0868959295820E-02
(PID.TID 0000.0001) %MON dynstat_uvel_min             =  -5.1735246434857E-02
(PID.TID 0000.0001) %MON dynstat_uvel_mean            =   1.6257417331504E-10
(PID.TID 0000.0001) %MON dynstat_uvel_sd              =   2.3065548016988E-02
(PID.TID 0000.0001) %MON dynstat_uvel_del2            =   6.4408278720510E-04
(PID.TID 0000.0001) %MON dynstat_vvel_max             =   1.6769773077504E-01
(PID.TID 0000.0001) %MON dynstat_vvel_min             =  -5.5599187702810E-02
(PID.TID 0000.0001) %MON dynstat_vvel_mean            =  -2.1358484773320E-09
(PID.TID 0000.0001) %MON dynstat_vvel_sd              =   3.7608825053299E-02
(PID.TID 0000.0001) %MON dynstat_vvel_del2            =   1.6259699481704E-03
(PID.TID 0000.0001) %MON dynstat_wvel_max             =   2.9678628966212E-10
(PID.TID 0000.0001) %MON dynstat_wvel_min             =  -3.2316888812929E-10
(PID.TID 0000.0001) %MON dynstat_wvel_mean            =  -3.6626430599139E-21
(PID.TID 0000.0001) %MON dynstat_wvel_sd              =   8.2289369830200E-11
(PID.TID 0000.0001) %MON dynstat_wvel_del2            =   3.3867026041511E-11
(PID.TID 0000.0001) %MON dynstat_theta_max            =   2.0000000000000E+01
(PID.TID 0000.0001) %MON dynstat_theta_min            =   2.0000000000000E+01
(PID.TID 0000.0001) %MON dynstat_theta_mean           =   2.0000000000000E+01
(PID.TID 0000.0001) %MON dynstat_theta_sd             =   0.0000000000000E+00
(PID.TID 0000.0001) %MON dynstat_theta_del2           =   0.0000000000000E+00
(PID.TID 0000.0001) %MON dynstat_salt_max             =   1.0000000000000E+01
(PID.TID 0000.0001) %MON dynstat_salt_min             =   1.0000000000000E+01
(PID.TID 0000.0001) %MON dynstat_salt_mean            =   1.0000000000000E+01
(PID.TID 0000.0001) %MON dynstat_salt_sd              =   0.0000000000000E+00
(PID.TID 0000.0001) %MON dynstat_salt_del2            =   0.0000000000000E+00
(PID.TID 0000.0001) %MON advcfl_uvel_max              =   2.8347583718328E-02
(PID.TID 0000.0001) %MON advcfl_vvel_max              =   6.7079092310018E-02
(PID.TID 0000.0001) %MON advcfl_wvel_max              =   2.5853511050344E-09
(PID.TID 0000.0001) %MON advcfl_W_hf_max              =   0.0000000000000E+00
(PID.TID 0000.0001) %MON pe_b_mean                    =   5.7522696504043E-06
(PID.TID 0000.0001) %MON ke_max                       =   1.4004696211240E-02
(PID.TID 0000.0001) %MON ke_mean                      =   9.4023105043368E-04
(PID.TID 0000.0001) %MON ke_vol                       =   1.1062500000000E+16
(PID.TID 0000.0001) %MON vort_r_min                   =  -1.3833759310686E-06
(PID.TID 0000.0001) %MON vort_r_max                   =   1.9603605780201E-06
(PID.TID 0000.0001) %MON vort_a_mean                  =   1.0735859124867E-04
(PID.TID 0000.0001) %MON vort_a_sd                    =   4.4130473005755E-06
(PID.TID 0000.0001) %MON vort_p_mean                  =   1.1765497076023E-04
(PID.TID 0000.0001) %MON vort_p_sd                    =   5.6390875803626E-05
(PID.TID 0000.0001) %MON surfExpan_theta_mean         =  -7.3252860801658E-20
(PID.TID 0000.0001) %MON surfExpan_salt_mean          =  -3.6626430400829E-20
(PID.TID 0000.0001) // =======================================================
(PID.TID 0000.0001) // End MONITOR dynamic field statistics
(PID.TID 0000.0001) // =======================================================
 Writing explicit matrix : 1 7 1
 Writing implicit matrix : 1 7 1
 cg2d: Sum(rhs),rhsMax =   1.29181366897886E-05  7.14831382145326E-01
(PID.TID 0000.0001)                    cg2d_init_res =    1.06514665812323E-06
(PID.TID 0000.0001)                       cg2d_iters =    17
(PID.TID 0000.0001)                         cg2d_res =    7.65957939308742E-08
(PID.TID 0000.0001) // =======================================================
(PID.TID 0000.0001) // Begin MONITOR dynamic field statistics
(PID.TID 0000.0001) // =======================================================
(PID.TID 0000.0001) %MON time_tsnumber                =                200008
(PID.TID 0000.0001) %MON time_secondsf                =   4.0001600000000E+09
(PID.TID 0000.0001) %MON dynstat_eta_max              =   2.1785900968545E-01
(PID.TID 0000.0001) %MON dynstat_eta_min              =  -9.2594503936921E-02
(PID.TID 0000.0001) %MON dynstat_eta_mean             =  -8.3472411337770E-06
(PID.TID 0000.0001) %MON dynstat_eta_sd               =   7.6574672065167E-02
(PID.TID 0000.0001) %MON dynstat_eta_del2             =   1.5101960291410E-03
(PID.TID 0000.0001) %MON dynstat_uvel_max             =   7.0868963218160E-02
(PID.TID 0000.0001) %MON dynstat_uvel_min             =  -5.1735245595627E-02
(PID.TID 0000.0001) %MON dynstat_uvel_mean            =  -4.2115285338695E-10
(PID.TID 0000.0001) %MON dynstat_uvel_sd              =   2.3065549284518E-02
(PID.TID 0000.0001) %MON dynstat_uvel_del2            =   6.4408284752083E-04
(PID.TID 0000.0001) %MON dynstat_vvel_max             =   1.6769773800540E-01
(PID.TID 0000.0001) %MON dynstat_vvel_min             =  -5.5599182940113E-02
(PID.TID 0000.0001) %MON dynstat_vvel_mean            =  -9.2460775483427E-11
(PID.TID 0000.0001) %MON dynstat_vvel_sd              =   3.7608825868659E-02
(PID.TID 0000.0001) %MON dynstat_vvel_del2            =   1.6259699978430E-03
(PID.TID 0000.0001) %MON dynstat_wvel_max             =   2.6578594688326E-10
(PID.TID 0000.0001) %MON dynstat_wvel_min             =  -2.4862329931930E-10
(PID.TID 0000.0001) %MON dynstat_wvel_mean            =  -5.7961008005702E-23
(PID.TID 0000.0001) %MON dynstat_wvel_sd              =   7.3628381222612E-11
(PID.TID 0000.0001) %MON dynstat_wvel_del2            =   3.1854212590180E-11
(PID.TID 0000.0001) %MON dynstat_theta_max            =   2.0000000000000E+01
(PID.TID 0000.0001) %MON dynstat_theta_min            =   2.0000000000000E+01
(PID.TID 0000.0001) %MON dynstat_theta_mean           =   2.0000000000000E+01
(PID.TID 0000.0001) %MON dynstat_theta_sd             =   0.0000000000000E+00
(PID.TID 0000.0001) %MON dynstat_theta_del2           =   0.0000000000000E+00
(PID.TID 0000.0001) %MON dynstat_salt_max             =   1.0000000000000E+01
(PID.TID 0000.0001) %MON dynstat_salt_min             =   1.0000000000000E+01
(PID.TID 0000.0001) %MON dynstat_salt_mean            =   1.0000000000000E+01
(PID.TID 0000.0001) %MON dynstat_salt_sd              =   0.0000000000000E+00
(PID.TID 0000.0001) %MON dynstat_salt_del2            =   0.0000000000000E+00
(PID.TID 0000.0001) %MON advcfl_uvel_max              =   2.8347585287264E-02
(PID.TID 0000.0001) %MON advcfl_vvel_max              =   6.7079095202161E-02
(PID.TID 0000.0001) %MON advcfl_wvel_max              =   2.1262875750661E-09
(PID.TID 0000.0001) %MON advcfl_W_hf_max              =   0.0000000000000E+00
(PID.TID 0000.0001) %MON pe_b_mean                    =   5.7522705426046E-06
(PID.TID 0000.0001) %MON ke_max                       =   1.4004697375028E-02
(PID.TID 0000.0001) %MON ke_mean                      =   9.4023110830419E-04
(PID.TID 0000.0001) %MON ke_vol                       =   1.1062500000000E+16
(PID.TID 0000.0001) %MON vort_r_min                   =  -1.3833759546307E-06
(PID.TID 0000.0001) %MON vort_r_max                   =   1.9603606346513E-06
(PID.TID 0000.0001) %MON vort_a_mean                  =   1.0735859124867E-04
(PID.TID 0000.0001) %MON vort_a_sd                    =   4.4130473004550E-06
(PID.TID 0000.0001) %MON vort_p_mean                  =   1.1765497076023E-04
(PID.TID 0000.0001) %MON vort_p_sd                    =   5.6390875810885E-05
(PID.TID 0000.0001) %MON surfExpan_theta_mean         =  -1.1592201649313E-21
(PID.TID 0000.0001) %MON surfExpan_salt_mean          =  -5.7961008246564E-22
(PID.TID 0000.0001) // =======================================================
(PID.TID 0000.0001) // End MONITOR dynamic field statistics
(PID.TID 0000.0001) // =======================================================
 Writing explicit matrix : 1 8 1
 Writing implicit matrix : 1 8 1
 cg2d: Sum(rhs),rhsMax =   1.29179200139187E-05  7.14831450919318E-01
(PID.TID 0000.0001)                    cg2d_init_res =    1.11079779615663E-06
(PID.TID 0000.0001)                       cg2d_iters =    18
(PID.TID 0000.0001)                         cg2d_res =    9.08082390091660E-08
(PID.TID 0000.0001) // =======================================================
(PID.TID 0000.0001) // Begin MONITOR dynamic field statistics
(PID.TID 0000.0001) // =======================================================
(PID.TID 0000.0001) %MON time_tsnumber                =                200009
(PID.TID 0000.0001) %MON time_secondsf                =   4.0001800000000E+09
(PID.TID 0000.0001) %MON dynstat_eta_max              =   2.1785900450428E-01
(PID.TID 0000.0001) %MON dynstat_eta_min              =  -9.2594527421711E-02
(PID.TID 0000.0001) %MON dynstat_eta_mean             =  -8.3476472944031E-06
(PID.TID 0000.0001) %MON dynstat_eta_sd               =   7.6574670300970E-02
(PID.TID 0000.0001) %MON dynstat_eta_del2             =   1.5101961249859E-03
(PID.TID 0000.0001) %MON dynstat_uvel_max             =   7.0868964909377E-02
(PID.TID 0000.0001) %MON dynstat_uvel_min             =  -5.1735244831866E-02
(PID.TID 0000.0001) %MON dynstat_uvel_mean            =   3.1056201640311E-10
(PID.TID 0000.0001) %MON dynstat_uvel_sd              =   2.3065548419667E-02
(PID.TID 0000.0001) %MON dynstat_uvel_del2            =   6.4408284028507E-04
(PID.TID 0000.0001) %MON dynstat_vvel_max             =   1.6769773392761E-01
(PID.TID 0000.0001) %MON dynstat_vvel_min             =  -5.5599182338729E-02
(PID.TID 0000.0001) %MON dynstat_vvel_mean            =   1.5253262936669E-10
(PID.TID 0000.0001) %MON dynstat_vvel_sd              =   3.7608824999184E-02
(PID.TID 0000.0001) %MON dynstat_vvel_del2            =   1.6259699624082E-03
(PID.TID 0000.0001) %MON dynstat_wvel_max             =   2.6066180223424E-10
(PID.TID 0000.0001) %MON dynstat_wvel_min             =  -3.9599354295060E-10
(PID.TID 0000.0001) %MON dynstat_wvel_mean            =   2.8524220119757E-21
(PID.TID 0000.0001) %MON dynstat_wvel_sd              =   8.7292345307786E-11
(PID.TID 0000.0001) %MON dynstat_wvel_del2            =   3.9402316522652E-11
(PID.TID 0000.0001) %MON dynstat_theta_max            =   2.0000000000000E+01
(PID.TID 0000.0001) %MON dynstat_theta_min            =   2.0000000000000E+01
(PID.TID 0000.0001) %MON dynstat_theta_mean           =   2.0000000000000E+01
(PID.TID 0000.0001) %MON dynstat_theta_sd             =   0.0000000000000E+00
(PID.TID 0000.0001) %MON dynstat_theta_del2           =   0.0000000000000E+00
(PID.TID 0000.0001) %MON dynstat_salt_max             =   1.0000000000000E+01
(PID.TID 0000.0001) %MON dynstat_salt_min             =   1.0000000000000E+01
(PID.TID 0000.0001) %MON dynstat_salt_mean            =   1.0000000000000E+01
(PID.TID 0000.0001) %MON dynstat_salt_sd              =   0.0000000000000E+00
(PID.TID 0000.0001) %MON dynstat_salt_del2            =   0.0000000000000E+00
(PID.TID 0000.0001) %MON advcfl_uvel_max              =   2.8347585963751E-02
(PID.TID 0000.0001) %MON advcfl_vvel_max              =   6.7079093571042E-02
(PID.TID 0000.0001) %MON advcfl_wvel_max              =   3.1679483436048E-09
(PID.TID 0000.0001) %MON advcfl_W_hf_max              =   0.0000000000000E+00
(PID.TID 0000.0001) %MON pe_b_mean                    =   5.7522702775592E-06
(PID.TID 0000.0001) %MON ke_max                       =   1.4004696677850E-02
(PID.TID 0000.0001) %MON ke_mean                      =   9.4023105744067E-04
(PID.TID 0000.0001) %MON ke_vol                       =   1.1062500000000E+16
(PID.TID 0000.0001) %MON vort_r_min                   =  -1.3833759374588E-06
(PID.TID 0000.0001) %MON vort_r_max                   =   1.9603605531573E-06
(PID.TID 0000.0001) %MON vort_a_mean                  =   1.0735859124867E-04
(PID.TID 0000.0001) %MON vort_a_sd                    =   4.4130473014548E-06
(PID.TID 0000.0001) %MON vort_p_mean                  =   1.1765497076023E-04
(PID.TID 0000.0001) %MON vort_p_sd                    =   5.6390875805417E-05
(PID.TID 0000.0001) %MON surfExpan_theta_mean         =   5.7048440246740E-20
(PID.TID 0000.0001) %MON surfExpan_salt_mean          =   2.8524220123370E-20
(PID.TID 0000.0001) // =======================================================
(PID.TID 0000.0001) // End MONITOR dynamic field statistics
(PID.TID 0000.0001) // =======================================================
 Writing explicit matrix : 1 9 1
 Writing implicit matrix : 1 9 1
 cg2d: Sum(rhs),rhsMax =   1.29185494147990E-05  7.14831404157615E-01
(PID.TID 0000.0001)                    cg2d_init_res =    9.57340414596553E-07
(PID.TID 0000.0001)                       cg2d_iters =    10
(PID.TID 0000.0001)                         cg2d_res =    9.79891659972519E-08
(PID.TID 0000.0001) // =======================================================
(PID.TID 0000.0001) // Begin MONITOR dynamic field statistics
(PID.TID 0000.0001) // =======================================================
(PID.TID 0000.0001) %MON time_tsnumber                =                200010
(PID.TID 0000.0001) %MON time_secondsf                =   4.0002000000000E+09
(PID.TID 0000.0001) %MON dynstat_eta_max              =   2.1785899418360E-01
(PID.TID 0000.0001) %MON dynstat_eta_min              =  -9.2594507089039E-02
(PID.TID 0000.0001) %MON dynstat_eta_mean             =  -8.3472039449108E-06
(PID.TID 0000.0001) %MON dynstat_eta_sd               =   7.6574661884553E-02
(PID.TID 0000.0001) %MON dynstat_eta_del2             =   1.5101959940328E-03
(PID.TID 0000.0001) %MON dynstat_uvel_max             =   7.0868961191916E-02
(PID.TID 0000.0001) %MON dynstat_uvel_min             =  -5.1735249175660E-02
(PID.TID 0000.0001) %MON dynstat_uvel_mean            =   2.3555347313168E-10
(PID.TID 0000.0001) %MON dynstat_uvel_sd              =   2.3065549206509E-02
(PID.TID 0000.0001) %MON dynstat_uvel_del2            =   6.4408284343718E-04
(PID.TID 0000.0001) %MON dynstat_vvel_max             =   1.6769773535243E-01
(PID.TID 0000.0001) %MON dynstat_vvel_min             =  -5.5599188270226E-02
(PID.TID 0000.0001) %MON dynstat_vvel_mean            =  -2.7314094590154E-09
(PID.TID 0000.0001) %MON dynstat_vvel_sd              =   3.7608826082410E-02
(PID.TID 0000.0001) %MON dynstat_vvel_del2            =   1.6259700240885E-03
(PID.TID 0000.0001) %MON dynstat_wvel_max             =   3.1423899792135E-10
(PID.TID 0000.0001) %MON dynstat_wvel_min             =  -2.8826325964183E-10
(PID.TID 0000.0001) %MON dynstat_wvel_mean            =   1.0405441530386E-20
(PID.TID 0000.0001) %MON dynstat_wvel_sd              =   9.4185781684695E-11
(PID.TID 0000.0001) %MON dynstat_wvel_del2            =   4.2311131233055E-11
(PID.TID 0000.0001) %MON dynstat_theta_max            =   2.0000000000000E+01
(PID.TID 0000.0001) %MON dynstat_theta_min            =   2.0000000000000E+01
(PID.TID 0000.0001) %MON dynstat_theta_mean           =   2.0000000000000E+01
(PID.TID 0000.0001) %MON dynstat_theta_sd             =   0.0000000000000E+00
(PID.TID 0000.0001) %MON dynstat_theta_del2           =   0.0000000000000E+00
(PID.TID 0000.0001) %MON dynstat_salt_max             =   1.0000000000000E+01
(PID.TID 0000.0001) %MON dynstat_salt_min             =   1.0000000000000E+01
(PID.TID 0000.0001) %MON dynstat_salt_mean            =   1.0000000000000E+01
(PID.TID 0000.0001) %MON dynstat_salt_sd              =   0.0000000000000E+00
(PID.TID 0000.0001) %MON dynstat_salt_del2            =   0.0000000000000E+00
(PID.TID 0000.0001) %MON advcfl_uvel_max              =   2.8347584476766E-02
(PID.TID 0000.0001) %MON advcfl_vvel_max              =   6.7079094140973E-02
(PID.TID 0000.0001) %MON advcfl_wvel_max              =   2.5139119833708E-09
(PID.TID 0000.0001) %MON advcfl_W_hf_max              =   0.0000000000000E+00
(PID.TID 0000.0001) %MON pe_b_mean                    =   5.7522690130736E-06
(PID.TID 0000.0001) %MON ke_max                       =   1.4004696994315E-02
(PID.TID 0000.0001) %MON ke_mean                      =   9.4023111433226E-04
(PID.TID 0000.0001) %MON ke_vol                       =   1.1062500000000E+16
(PID.TID 0000.0001) %MON vort_r_min                   =  -1.3833759963307E-06
(PID.TID 0000.0001) %MON vort_r_max                   =   1.9603606247358E-06
(PID.TID 0000.0001) %MON vort_a_mean                  =   1.0735859124867E-04
(PID.TID 0000.0001) %MON vort_a_sd                    =   4.4130473016949E-06
(PID.TID 0000.0001) %MON vort_p_mean                  =   1.1765497076023E-04
(PID.TID 0000.0001) %MON vort_p_sd                    =   5.6390875808950E-05
(PID.TID 0000.0001) %MON surfExpan_theta_mean         =   2.0810883020628E-19
(PID.TID 0000.0001) %MON surfExpan_salt_mean          =   1.0405441510314E-19
(PID.TID 0000.0001) // =======================================================
(PID.TID 0000.0001) // End MONITOR dynamic field statistics
(PID.TID 0000.0001) // =======================================================
 Writing explicit matrix : 1 10 1
 Writing implicit matrix : 1 10 1
(PID.TID 0000.0001) %CHECKPOINT    200010 ckptA
(PID.TID 0000.0001)   Seconds in section "ALL                    [THE_MODEL_MAIN]":
(PID.TID 0000.0001)           User time:  0.350947
(PID.TID 0000.0001)         System time:  0.0409939996
(PID.TID 0000.0001)     Wall clock time:  0.465145111
(PID.TID 0000.0001)          No. starts: 1
(PID.TID 0000.0001)           No. stops: 1
(PID.TID 0000.0001)   Seconds in section "INITIALISE_FIXED       [THE_MODEL_MAIN]":
(PID.TID 0000.0001)           User time:  0.0439930002
(PID.TID 0000.0001)         System time:  0.00999900035
(PID.TID 0000.0001)     Wall clock time:  0.0853619576
(PID.TID 0000.0001)          No. starts: 1
(PID.TID 0000.0001)           No. stops: 1
(PID.TID 0000.0001)   Seconds in section "THE_MAIN_LOOP          [THE_MODEL_MAIN]":
(PID.TID 0000.0001)           User time:  0.299955014
(PID.TID 0000.0001)         System time:  0.021995998
(PID.TID 0000.0001)     Wall clock time:  0.352406025
(PID.TID 0000.0001)          No. starts: 1
(PID.TID 0000.0001)           No. stops: 1
(PID.TID 0000.0001)   Seconds in section "INITIALISE_VARIA    [THE_MAIN_LOOP]":
(PID.TID 0000.0001)           User time:  0.00599899888
(PID.TID 0000.0001)         System time:  0.00499899965
(PID.TID 0000.0001)     Wall clock time:  0.0115590096
(PID.TID 0000.0001)          No. starts: 1
(PID.TID 0000.0001)           No. stops: 1
(PID.TID 0000.0001)   Seconds in section "MONITOR             [THE_MAIN_LOOP]":
(PID.TID 0000.0001)           User time:  0.00400000066
(PID.TID 0000.0001)         System time:  0.
(PID.TID 0000.0001)     Wall clock time:  0.00435090065
(PID.TID 0000.0001)          No. starts: 1
(PID.TID 0000.0001)           No. stops: 1
(PID.TID 0000.0001)   Seconds in section "DO_THE_MODEL_IO     [THE_MAIN_LOOP]":
(PID.TID 0000.0001)           User time:  0.00299900025
(PID.TID 0000.0001)         System time:  0.00399900042
(PID.TID 0000.0001)     Wall clock time:  0.0105440617
(PID.TID 0000.0001)          No. starts: 1
(PID.TID 0000.0001)           No. stops: 1
(PID.TID 0000.0001)   Seconds in section "MAIN LOOP           [THE_MAIN_LOOP]":
(PID.TID 0000.0001)           User time:  0.286957014
(PID.TID 0000.0001)         System time:  0.0129979979
(PID.TID 0000.0001)     Wall clock time:  0.325773001
(PID.TID 0000.0001)          No. starts: 1
(PID.TID 0000.0001)           No. stops: 1
(PID.TID 0000.0001)   Seconds in section "FORWARD_STEP        [THE_MAIN_LOOP]":
(PID.TID 0000.0001)           User time:  0.286957014
(PID.TID 0000.0001)         System time:  0.0129979979
(PID.TID 0000.0001)     Wall clock time:  0.325398922
(PID.TID 0000.0001)          No. starts: 10
(PID.TID 0000.0001)           No. stops: 10
(PID.TID 0000.0001)   Seconds in section "EXTERNAL_FIELDS_LOAD[FORWARD_STEP]":
(PID.TID 0000.0001)           User time:  0.
(PID.TID 0000.0001)         System time:  0.
(PID.TID 0000.0001)     Wall clock time:  0.000347137451
(PID.TID 0000.0001)          No. starts: 10
(PID.TID 0000.0001)           No. stops: 10
(PID.TID 0000.0001)   Seconds in section "DO_ATMOSPHERIC_PHYS [FORWARD_STEP]":
(PID.TID 0000.0001)           User time:  0.
(PID.TID 0000.0001)         System time:  0.
(PID.TID 0000.0001)     Wall clock time:  0.000341653824
(PID.TID 0000.0001)          No. starts: 10
(PID.TID 0000.0001)           No. stops: 10
(PID.TID 0000.0001)   Seconds in section "DO_OCEANIC_PHYS     [FORWARD_STEP]":
(PID.TID 0000.0001)           User time:  0.00899700448
(PID.TID 0000.0001)         System time:  0.
(PID.TID 0000.0001)     Wall clock time:  0.00537180901
(PID.TID 0000.0001)          No. starts: 10
(PID.TID 0000.0001)           No. stops: 10
(PID.TID 0000.0001)   Seconds in section "THERMODYNAMICS      [FORWARD_STEP]":
(PID.TID 0000.0001)           User time:  0.0539929643
(PID.TID 0000.0001)         System time:  0.00100000016
(PID.TID 0000.0001)     Wall clock time:  0.0560538769
(PID.TID 0000.0001)          No. starts: 10
(PID.TID 0000.0001)           No. stops: 10
(PID.TID 0000.0001)   Seconds in section "DYNAMICS            [FORWARD_STEP]":
(PID.TID 0000.0001)           User time:  0.0449920297
(PID.TID 0000.0001)         System time:  0.
(PID.TID 0000.0001)     Wall clock time:  0.0470438004
(PID.TID 0000.0001)          No. starts: 10
(PID.TID 0000.0001)           No. stops: 10
(PID.TID 0000.0001)   Seconds in section "SOLVE_FOR_PRESSURE  [FORWARD_STEP]":
(PID.TID 0000.0001)           User time:  0.108982995
(PID.TID 0000.0001)         System time:  0.
(PID.TID 0000.0001)     Wall clock time:  0.107327461
(PID.TID 0000.0001)          No. starts: 10
(PID.TID 0000.0001)           No. stops: 10
(PID.TID 0000.0001)   Seconds in section "UV_CORRECTION_STEP  [FORWARD_STEP]":
(PID.TID 0000.0001)           User time:  0.00499901175
(PID.TID 0000.0001)         System time:  0.
(PID.TID 0000.0001)     Wall clock time:  0.00540399551
(PID.TID 0000.0001)          No. starts: 10
(PID.TID 0000.0001)           No. stops: 10
(PID.TID 0000.0001)   Seconds in section "TS_CORRECTION_STEP  [FORWARD_STEP]":
(PID.TID 0000.0001)           User time:  0.00200000405
(PID.TID 0000.0001)         System time:  0.
(PID.TID 0000.0001)     Wall clock time:  0.00264716148
(PID.TID 0000.0001)          No. starts: 10
(PID.TID 0000.0001)           No. stops: 10
(PID.TID 0000.0001)   Seconds in section "BLOCKING_EXCHANGES  [FORWARD_STEP]":
(PID.TID 0000.0001)           User time:  0.000999994576
(PID.TID 0000.0001)         System time:  0.
(PID.TID 0000.0001)     Wall clock time:  0.00191569328
(PID.TID 0000.0001)          No. starts: 10
(PID.TID 0000.0001)           No. stops: 10
(PID.TID 0000.0001)   Seconds in section "DO_STATEVARS_TAVE   [FORWARD_STEP]":
(PID.TID 0000.0001)           User time:  0.000999987125
(PID.TID 0000.0001)         System time:  0.
(PID.TID 0000.0001)     Wall clock time:  0.000348091125
(PID.TID 0000.0001)          No. starts: 10
(PID.TID 0000.0001)           No. stops: 10
(PID.TID 0000.0001)   Seconds in section "MONITOR             [FORWARD_STEP]":
(PID.TID 0000.0001)           User time:  0.044994019
(PID.TID 0000.0001)         System time:  0.
(PID.TID 0000.0001)     Wall clock time:  0.0443708897
(PID.TID 0000.0001)          No. starts: 10
(PID.TID 0000.0001)           No. stops: 10
(PID.TID 0000.0001)   Seconds in section "DO_THE_MODEL_IO     [FORWARD_STEP]":
(PID.TID 0000.0001)           User time:  0.0139990002
(PID.TID 0000.0001)         System time:  0.00899799727
(PID.TID 0000.0001)     Wall clock time:  0.0489549637
(PID.TID 0000.0001)          No. starts: 10
(PID.TID 0000.0001)           No. stops: 10
(PID.TID 0000.0001)   Seconds in section "WRITE_CHECKPOINT    [FORWARD_STEP]":
(PID.TID 0000.0001)           User time:  0.
(PID.TID 0000.0001)         System time:  0.
(PID.TID 0000.0001)     Wall clock time:  0.000349760056
(PID.TID 0000.0001)          No. starts: 10
(PID.TID 0000.0001)           No. stops: 10
(PID.TID 0000.0001)   Seconds in section "WRITE_CHECKPOINT       [THE_MODEL_MAIN]":
(PID.TID 0000.0001)           User time:  0.00699898601
(PID.TID 0000.0001)         System time:  0.00899900123
(PID.TID 0000.0001)     Wall clock time:  0.0272009373
(PID.TID 0000.0001)          No. starts: 1
(PID.TID 0000.0001)           No. stops: 1
(PID.TID 0000.0001) // ======================================================
(PID.TID 0000.0001) // Tile <-> Tile communication statistics
(PID.TID 0000.0001) // ======================================================
(PID.TID 0000.0001) // o Tile number: 000001
(PID.TID 0000.0001) //         No. X exchanges =              0
(PID.TID 0000.0001) //            Max. X spins =              0
(PID.TID 0000.0001) //            Min. X spins =     1000000000
(PID.TID 0000.0001) //          Total. X spins =              0
(PID.TID 0000.0001) //            Avg. X spins =       0.00E+00
(PID.TID 0000.0001) //         No. Y exchanges =              0
(PID.TID 0000.0001) //            Max. Y spins =              0
(PID.TID 0000.0001) //            Min. Y spins =     1000000000
(PID.TID 0000.0001) //          Total. Y spins =              0
(PID.TID 0000.0001) //            Avg. Y spins =       0.00E+00
(PID.TID 0000.0001) // o Thread number: 000001
(PID.TID 0000.0001) //            No. barriers =           5650
(PID.TID 0000.0001) //      Max. barrier spins =              1
(PID.TID 0000.0001) //      Min. barrier spins =              1
(PID.TID 0000.0001) //     Total barrier spins =           5650
(PID.TID 0000.0001) //      Avg. barrier spins =       1.00E+00
