(PID.TID 0000.0001) 
(PID.TID 0000.0001) // ======================================================
(PID.TID 0000.0001) //                      MITgcm UV
(PID.TID 0000.0001) //                      =========
(PID.TID 0000.0001) // ======================================================
(PID.TID 0000.0001) // execution environment starting up...
(PID.TID 0000.0001) // Run starting Wed Apr  1 14:19:48 1998
(PID.TID 0000.0001) // on melville.lcs.mit.edu
(PID.TID 0000.0001) // account cnh
(PID.TID 0000.0001) // MITgcm UV Release: $Name:  $
(PID.TID 0000.0001) 
(PID.TID 0000.0001) // =======================================================
(PID.TID 0000.0001) // Execution Environment parameter file "eedata"
(PID.TID 0000.0001) // =======================================================
(PID.TID 0000.0001) ># Example "eedata" file
(PID.TID 0000.0001) ># Lines beginning "#" are comments
(PID.TID 0000.0001) ># nTx - No. threads per process in X
(PID.TID 0000.0001) ># nTy - No. threads per process in Y
(PID.TID 0000.0001) > &EEPARMS
(PID.TID 0000.0001) > useCubedSphereExchange=.TRUE.,
(PID.TID 0000.0001) ># Activate one line below to support 2, 3 or 6 way multi-threading
(PID.TID 0000.0001) > nTx=1,
(PID.TID 0000.0001) >#nTx=2,
(PID.TID 0000.0001) >#nTx=3,
(PID.TID 0000.0001) >#nTx=6,
(PID.TID 0000.0001) > &
(PID.TID 0000.0001) ># Note: Some systems use & as the
(PID.TID 0000.0001) ># namelist terminator. Other systems
(PID.TID 0000.0001) ># use a / character (as shown here).
(PID.TID 0000.0001) 
(PID.TID 0000.0001) // =======================================================
(PID.TID 0000.0001) // Computational Grid Specification ( see files "SIZE.h" )
(PID.TID 0000.0001) //                                  ( and "eedata"       )
(PID.TID 0000.0001) // =======================================================
(PID.TID 0000.0001)      nPx =    1 ; /* No. processes in X */
(PID.TID 0000.0001)      nPy =    1 ; /* No. processes in Y */
(PID.TID 0000.0001)      nSx =    6 ; /* No. tiles in X per process */
(PID.TID 0000.0001)      nSy =    1 ; /* No. tiles in Y per process */
(PID.TID 0000.0001)      sNx =   32 ; /* Tile size in X */
(PID.TID 0000.0001)      sNy =   32 ; /* Tile size in Y */
(PID.TID 0000.0001)      OLx =    3 ; /* Tile overlap distance in X */
(PID.TID 0000.0001)      OLy =    3 ; /* Tile overlap distance in Y */
(PID.TID 0000.0001)      nTx =    1 ; /* No. threads in X per process */
(PID.TID 0000.0001)      nTy =    1 ; /* No. threads in Y per process */
(PID.TID 0000.0001)       Nr =    5 ; /* No. levels in the vertical   */
(PID.TID 0000.0001)       nX =  192 ; /* Total domain size in X ( = nPx*nSx*sNx ) */
(PID.TID 0000.0001)       nY =   32 ; /* Total domain size in Y ( = nPy*nSy*sNy ) */
(PID.TID 0000.0001)   nTiles =    6 ; /* Total no. tiles per process ( = nSx*nSy ) */
(PID.TID 0000.0001)   nProcs =    1 ; /* Total no. processes ( = nPx*nPy ) */
(PID.TID 0000.0001) nThreads =    1 ; /* Total no. threads per process ( = nTx*nTy ) */
(PID.TID 0000.0001) usingMPI =    F ; /* Flag used to control whether MPI is in use */
(PID.TID 0000.0001)                   /*  note: To execute a program with MPI calls */
(PID.TID 0000.0001)                   /*  it must be launched appropriately e.g     */
(PID.TID 0000.0001)                   /*  "mpirun -np 64 ......"                    */
(PID.TID 0000.0001) 
(PID.TID 0000.0001) // ======================================================
(PID.TID 0000.0001) // Mapping of tiles to threads
(PID.TID 0000.0001) // ======================================================
(PID.TID 0000.0001) // -o- Thread   1, tiles (   1:   6,   1:   1)
(PID.TID 0000.0001) 
(PID.TID 0000.0001) // ======================================================
(PID.TID 0000.0001) // Tile <-> Tile connectvity table
(PID.TID 0000.0001) // ======================================================
(PID.TID 0000.0001) // Tile number: 000001 (process no. = 000001)
(PID.TID 0000.0001) //        WEST: Tile = 000006, Process = 000001, Comm = put
(PID.TID 0000.0001) //                bi = 000006, bj = 000001
(PID.TID 0000.0001) //        EAST: Tile = 000002, Process = 000001, Comm = put
(PID.TID 0000.0001) //                bi = 000002, bj = 000001
(PID.TID 0000.0001) //       SOUTH: Tile = 000001, Process = 000001, Comm = put
(PID.TID 0000.0001) //                bi = 000001, bj = 000001
(PID.TID 0000.0001) //       NORTH: Tile = 000001, Process = 000001, Comm = put
(PID.TID 0000.0001) //                bi = 000001, bj = 000001
(PID.TID 0000.0001) // Tile number: 000002 (process no. = 000001)
(PID.TID 0000.0001) //        WEST: Tile = 000001, Process = 000001, Comm = put
(PID.TID 0000.0001) //                bi = 000001, bj = 000001
(PID.TID 0000.0001) //        EAST: Tile = 000003, Process = 000001, Comm = put
(PID.TID 0000.0001) //                bi = 000003, bj = 000001
(PID.TID 0000.0001) //       SOUTH: Tile = 000002, Process = 000001, Comm = put
(PID.TID 0000.0001) //                bi = 000002, bj = 000001
(PID.TID 0000.0001) //       NORTH: Tile = 000002, Process = 000001, Comm = put
(PID.TID 0000.0001) //                bi = 000002, bj = 000001
(PID.TID 0000.0001) // Tile number: 000003 (process no. = 000001)
(PID.TID 0000.0001) //        WEST: Tile = 000002, Process = 000001, Comm = put
(PID.TID 0000.0001) //                bi = 000002, bj = 000001
(PID.TID 0000.0001) //        EAST: Tile = 000004, Process = 000001, Comm = put
(PID.TID 0000.0001) //                bi = 000004, bj = 000001
(PID.TID 0000.0001) //       SOUTH: Tile = 000003, Process = 000001, Comm = put
(PID.TID 0000.0001) //                bi = 000003, bj = 000001
(PID.TID 0000.0001) //       NORTH: Tile = 000003, Process = 000001, Comm = put
(PID.TID 0000.0001) //                bi = 000003, bj = 000001
(PID.TID 0000.0001) // Tile number: 000004 (process no. = 000001)
(PID.TID 0000.0001) //        WEST: Tile = 000003, Process = 000001, Comm = put
(PID.TID 0000.0001) //                bi = 000003, bj = 000001
(PID.TID 0000.0001) //        EAST: Tile = 000005, Process = 000001, Comm = put
(PID.TID 0000.0001) //                bi = 000005, bj = 000001
(PID.TID 0000.0001) //       SOUTH: Tile = 000004, Process = 000001, Comm = put
(PID.TID 0000.0001) //                bi = 000004, bj = 000001
(PID.TID 0000.0001) //       NORTH: Tile = 000004, Process = 000001, Comm = put
(PID.TID 0000.0001) //                bi = 000004, bj = 000001
(PID.TID 0000.0001) // Tile number: 000005 (process no. = 000001)
(PID.TID 0000.0001) //        WEST: Tile = 000004, Process = 000001, Comm = put
(PID.TID 0000.0001) //                bi = 000004, bj = 000001
(PID.TID 0000.0001) //        EAST: Tile = 000006, Process = 000001, Comm = put
(PID.TID 0000.0001) //                bi = 000006, bj = 000001
(PID.TID 0000.0001) //       SOUTH: Tile = 000005, Process = 000001, Comm = put
(PID.TID 0000.0001) //                bi = 000005, bj = 000001
(PID.TID 0000.0001) //       NORTH: Tile = 000005, Process = 000001, Comm = put
(PID.TID 0000.0001) //                bi = 000005, bj = 000001
(PID.TID 0000.0001) // Tile number: 000006 (process no. = 000001)
(PID.TID 0000.0001) //        WEST: Tile = 000005, Process = 000001, Comm = put
(PID.TID 0000.0001) //                bi = 000005, bj = 000001
(PID.TID 0000.0001) //        EAST: Tile = 000001, Process = 000001, Comm = put
(PID.TID 0000.0001) //                bi = 000001, bj = 000001
(PID.TID 0000.0001) //       SOUTH: Tile = 000006, Process = 000001, Comm = put
(PID.TID 0000.0001) //                bi = 000006, bj = 000001
(PID.TID 0000.0001) //       NORTH: Tile = 000006, Process = 000001, Comm = put
(PID.TID 0000.0001) //                bi = 000006, bj = 000001
(PID.TID 0000.0001) 
(PID.TID 0000.0001) // =======================================================
(PID.TID 0000.0001) // Model parameter file "data"
(PID.TID 0000.0001) // =======================================================
(PID.TID 0000.0001) ># ====================
(PID.TID 0000.0001) ># | Model parameters |
(PID.TID 0000.0001) ># ====================
(PID.TID 0000.0001) >#
(PID.TID 0000.0001) ># Continuous equation parameters
(PID.TID 0000.0001) > &PARM01
(PID.TID 0000.0001) > tRef=281.089, 289.321, 307.191, 331.377, 432.413,
(PID.TID 0000.0001) > sRef=5*0.,
(PID.TID 0000.0001) > viscAr=0.E3,
(PID.TID 0000.0001) > viscAh=0.E6,
(PID.TID 0000.0001) > viscA4=0.E17,
(PID.TID 0000.0001) > no_slip_sides=.FALSE.,
(PID.TID 0000.0001) > no_slip_bottom=.FALSE.,
(PID.TID 0000.0001) > diffKhT=0.E3,
(PID.TID 0000.0001) > diffKrT=0.,
(PID.TID 0000.0001) > diffK4T=0.E17,
(PID.TID 0000.0001) > diffKrS=0.E2,
(PID.TID 0000.0001) > diffKhS=0.E3,
(PID.TID 0000.0001) > diffK4S=0.E17,
(PID.TID 0000.0001) > buoyancyRelation='ATMOSPHERIC',
(PID.TID 0000.0001) > eosType='IDEALGAS',
(PID.TID 0000.0001) > Integr_GeoPot=2,
(PID.TID 0000.0001) > gravity=9.81,
(PID.TID 0000.0001) > rhonil=1.0,
(PID.TID 0000.0001) > rhoConst=1.0,
(PID.TID 0000.0001) > rigidLid=.FALSE.,
(PID.TID 0000.0001) > implicitFreeSurface=.TRUE.,
(PID.TID 0000.0001) > exactConserv=.TRUE.,
(PID.TID 0000.0001) > uniformLin_PhiSurf=.FALSE.,
(PID.TID 0000.0001) > staggerTimeStep=.TRUE.,
(PID.TID 0000.0001) > nonHydrostatic=.FALSE.,
(PID.TID 0000.0001) > readBinaryPrec=64,
(PID.TID 0000.0001) > writeBinaryPrec=64,
(PID.TID 0000.0001) > hFacMin=0.2,
(PID.TID 0000.0001) > saltAdvScheme=3,
(PID.TID 0000.0001) > vectorInvariantMomentum=.TRUE.,
(PID.TID 0000.0001) >#useJamartWetPoints=.TRUE.,
(PID.TID 0000.0001) > &
(PID.TID 0000.0001) >
(PID.TID 0000.0001) ># Elliptic solver parameters
(PID.TID 0000.0001) > &PARM02
(PID.TID 0000.0001) > cg2dMaxIters=200,
(PID.TID 0000.0001) >#cg2dTargetResidual=1.E-12,
(PID.TID 0000.0001) > cg2dTargetResWunit=1.E-17,
(PID.TID 0000.0001) > &
(PID.TID 0000.0001) >
(PID.TID 0000.0001) ># Time stepping parameters
(PID.TID 0000.0001) > &PARM03
(PID.TID 0000.0001) > niter0=17280,
(PID.TID 0000.0001) > nTimeSteps=10,
(PID.TID 0000.0001) >#endTime=31104000.,
(PID.TID 0000.0001) > deltaT=450.0,
(PID.TID 0000.0001) > abEps=0.1,
(PID.TID 0000.0001) > cAdjFreq=0.,
(PID.TID 0000.0001) > pChkptFreq=2592000.0,
(PID.TID 0000.0001) > dumpFreq=2592000.0,
(PID.TID 0000.0001) > taveFreq=2592000.0,
(PID.TID 0000.0001) >#monitorFreq=86400.,
(PID.TID 0000.0001) > monitorFreq=1.,
(PID.TID 0000.0001) > &
(PID.TID 0000.0001) >
(PID.TID 0000.0001) ># Gridding parameters
(PID.TID 0000.0001) > &PARM04
(PID.TID 0000.0001) > usingCartesianGrid=.FALSE.,
(PID.TID 0000.0001) > usingSphericalPolarGrid=.FALSE.,
(PID.TID 0000.0001) > usingCurvilinearGrid=.TRUE.,
(PID.TID 0000.0001) > delR=1.E4, 2.5E4, 3.E4, 2.E4, 1.5E4,
(PID.TID 0000.0001) > Ro_SeaLevel=1.E5,
(PID.TID 0000.0001) > groundAtK1=.TRUE.,
(PID.TID 0000.0001) > rSphere=6370.E3,
(PID.TID 0000.0001) > &
(PID.TID 0000.0001) >
(PID.TID 0000.0001) ># Input datasets
(PID.TID 0000.0001) > &PARM05
(PID.TID 0000.0001) > topoFile='topo.cs.bin',
(PID.TID 0000.0001) > &
(PID.TID 0000.0001) 
(PID.TID 0000.0001) S/R INI_PARMS ; read PARM01 : OK
(PID.TID 0000.0001) S/R INI_PARMS ; read PARM02 : OK
(PID.TID 0000.0001) S/R INI_PARMS ; read PARM03 : OK
(PID.TID 0000.0001) S/R INI_PARMS ; read PARM04 : OK
(PID.TID 0000.0001) S/R INI_PARMS ; read PARM05 : OK
(PID.TID 0000.0001)  MDSREADFIELD: opening global file: LONC.bin
(PID.TID 0000.0001)  MDSREADFIELD: opening global file: LATC.bin
(PID.TID 0000.0001)  MDSREADFIELD: opening global file: DXF.bin
(PID.TID 0000.0001)  MDSREADFIELD: opening global file: DYF.bin
(PID.TID 0000.0001)  MDSREADFIELD: opening global file: RA.bin
(PID.TID 0000.0001)  MDSREADFIELD: opening global file: LONG.bin
(PID.TID 0000.0001)  MDSREADFIELD: opening global file: LATG.bin
(PID.TID 0000.0001)  MDSREADFIELD: opening global file: DXV.bin
(PID.TID 0000.0001)  MDSREADFIELD: opening global file: DYU.bin
(PID.TID 0000.0001)  MDSREADFIELD: opening global file: RAZ.bin
(PID.TID 0000.0001)  MDSREADFIELD: opening global file: DXC.bin
(PID.TID 0000.0001)  MDSREADFIELD: opening global file: DYC.bin
(PID.TID 0000.0001)  MDSREADFIELD: opening global file: RAW.bin
(PID.TID 0000.0001)  MDSREADFIELD: opening global file: RAS.bin
(PID.TID 0000.0001)  MDSREADFIELD: opening global file: DXG.bin
(PID.TID 0000.0001)  MDSREADFIELD: opening global file: DYG.bin
(PID.TID 0000.0001) %MON XC_max                       =   1.7854351589505E+02
(PID.TID 0000.0001) %MON XC_min                       =  -1.7854351589505E+02
(PID.TID 0000.0001) %MON XC_mean                      =   5.2180482157382E-15
(PID.TID 0000.0001) %MON XC_sd                        =   1.0355545336287E+02
(PID.TID 0000.0001) %MON XG_max                       =   1.8000000000000E+02
(PID.TID 0000.0001) %MON XG_min                       =  -1.7708797161002E+02
(PID.TID 0000.0001) %MON XG_mean                      =   1.8796250616675E+00
(PID.TID 0000.0001) %MON XG_sd                        =   1.0410625309932E+02
(PID.TID 0000.0001) %MON DXC_max                      =   3.2375185836900E+05
(PID.TID 0000.0001) %MON DXC_min                      =   1.1142031410131E+05
(PID.TID 0000.0001) %MON DXC_mean                     =   2.8605689051214E+05
(PID.TID 0000.0001) %MON DXC_sd                       =   3.4042087138252E+04
(PID.TID 0000.0001) %MON DXF_max                      =   3.2369947500827E+05
(PID.TID 0000.0001) %MON DXF_min                      =   1.2020820513318E+05
(PID.TID 0000.0001) %MON DXF_mean                     =   2.8605437324820E+05
(PID.TID 0000.0001) %MON DXF_sd                       =   3.4050524252539E+04
(PID.TID 0000.0001) %MON DXG_max                      =   3.2375195872773E+05
(PID.TID 0000.0001) %MON DXG_min                      =   1.0098378008791E+05
(PID.TID 0000.0001) %MON DXG_mean                     =   2.8603818508931E+05
(PID.TID 0000.0001) %MON DXG_sd                       =   3.4140406908005E+04
(PID.TID 0000.0001) %MON DXV_max                      =   3.2380418162750E+05
(PID.TID 0000.0001) %MON DXV_min                      =   8.0152299824136E+04
(PID.TID 0000.0001) %MON DXV_mean                     =   2.8603970633619E+05
(PID.TID 0000.0001) %MON DXV_sd                       =   3.4145142117723E+04
(PID.TID 0000.0001) %MON YC_max                       =   8.7940663871962E+01
(PID.TID 0000.0001) %MON YC_min                       =  -8.7940663871962E+01
(PID.TID 0000.0001) %MON YC_mean                      =   3.7701323544563E-16
(PID.TID 0000.0001) %MON YC_sd                        =   3.8676242969072E+01
(PID.TID 0000.0001) %MON YG_max                       =   9.0000000000000E+01
(PID.TID 0000.0001) %MON YG_min                       =  -9.0000000000000E+01
(PID.TID 0000.0001) %MON YG_mean                      =  -1.2011668255785E-15
(PID.TID 0000.0001) %MON YG_sd                        =   3.9086186579984E+01
(PID.TID 0000.0001) %MON DYC_max                      =   3.2375185836900E+05
(PID.TID 0000.0001) %MON DYC_min                      =   1.1142031410131E+05
(PID.TID 0000.0001) %MON DYC_mean                     =   2.8605689051214E+05
(PID.TID 0000.0001) %MON DYC_sd                       =   3.4042087138252E+04
(PID.TID 0000.0001) %MON DYF_max                      =   3.2369947500827E+05
(PID.TID 0000.0001) %MON DYF_min                      =   1.2020820513318E+05
(PID.TID 0000.0001) %MON DYF_mean                     =   2.8605437324820E+05
(PID.TID 0000.0001) %MON DYF_sd                       =   3.4050524252539E+04
(PID.TID 0000.0001) %MON DYG_max                      =   3.2375195872773E+05
(PID.TID 0000.0001) %MON DYG_min                      =   1.0098378008791E+05
(PID.TID 0000.0001) %MON DYG_mean                     =   2.8603818508931E+05
(PID.TID 0000.0001) %MON DYG_sd                       =   3.4140406908005E+04
(PID.TID 0000.0001) %MON DYU_max                      =   3.2380418162750E+05
(PID.TID 0000.0001) %MON DYU_min                      =   8.0152299824136E+04
(PID.TID 0000.0001) %MON DYU_mean                     =   2.8603970633619E+05
(PID.TID 0000.0001) %MON DYU_sd                       =   3.4145142117723E+04
(PID.TID 0000.0001) %MON RA_max                       =   1.0479260248419E+11
(PID.TID 0000.0001) %MON RA_min                       =   1.4019007022556E+10
(PID.TID 0000.0001) %MON RA_mean                      =   8.2992246709265E+10
(PID.TID 0000.0001) %MON RA_sd                        =   1.7509089299457E+10
(PID.TID 0000.0001) %MON RAW_max                      =   1.0480965274559E+11
(PID.TID 0000.0001) %MON RAW_min                      =   1.2166903467143E+10
(PID.TID 0000.0001) %MON RAW_mean                     =   8.2992246709235E+10
(PID.TID 0000.0001) %MON RAW_sd                       =   1.7481917919657E+10
(PID.TID 0000.0001) %MON RAS_max                      =   1.0480965274559E+11
(PID.TID 0000.0001) %MON RAS_min                      =   1.2166903467143E+10
(PID.TID 0000.0001) %MON RAS_mean                     =   8.2992246709235E+10
(PID.TID 0000.0001) %MON RAS_sd                       =   1.7481917919657E+10
(PID.TID 0000.0001) %MON RAZ_max                      =   1.0484349334619E+11
(PID.TID 0000.0001) %MON RAZ_min                      =   8.8317900612505E+09
(PID.TID 0000.0001) %MON RAZ_mean                     =   8.2992246709234E+10
(PID.TID 0000.0001) %MON RAZ_sd                       =   1.7482297311044E+10
(PID.TID 0000.0001)  MDSREADFIELD: opening global file: topo.cs.bin
INI_P_GROUND: PhiRef/g [m] at Center (integer) and Interface (half-int.) levels:
  K=  0.5  ;  r=  100000.0  ;  phiRef/g=       0.000
  K=  1.0  ;  r=   95000.0  ;  phiRef/g=     418.526
  K=  1.5  ;  r=   90000.0  ;  phiRef/g=    1219.560
  K=  2.0  ;  r=   77500.0  ;  phiRef/g=    2044.053
  K=  2.5  ;  r=   65000.0  ;  phiRef/g=    3664.142
  K=  3.0  ;  r=   50000.0  ;  phiRef/g=    5384.296
  K=  3.5  ;  r=   35000.0  ;  phiRef/g=    7701.142
  K=  4.0  ;  r=   25000.0  ;  phiRef/g=   10200.400
  K=  4.5  ;  r=   15000.0  ;  phiRef/g=   13521.874
  K=  5.0  ;  r=    7500.0  ;  phiRef/g=   17856.056
  K=  5.5  ;  r=       0.0  ;  phiRef/g=   38969.174
(PID.TID 0000.0001) // =======================================================
(PID.TID 0000.0001) // Field Model R_low (ini_masks_etc) at iteration          1
(PID.TID 0000.0001) // CMIN =          1.000000000000000E+32
(PID.TID 0000.0001) // CMAX =         -1.000000000000000E+32
(PID.TID 0000.0001) // CINT =          0.000000000000000E+00
(PID.TID 0000.0001) // SYMBOLS (CMIN->CMAX): -abcdefghijklmnopqrstuvwxyz+
(PID.TID 0000.0001) //                  0.0: .
(PID.TID 0000.0001) // RANGE I (Lo:Hi:Step):(  -2: 195:   1)
(PID.TID 0000.0001) // RANGE J (Lo:Hi:Step):(  35:  -2:  -1)
(PID.TID 0000.0001) // RANGE K (Lo:Hi:Step):(   1:   1:   1)
(PID.TID 0000.0001) // =======================================================
(PID.TID 0000.0001) K =   1
(PID.TID 0000.0001) //                I=7       I=17      I=27      I=31      I=41      I=51      I=61      I=65      I=75      I=85      I=95      I=99      I=109     I=119     I=129     I=133     I=143     I=153     I=163     I=167     I=177     I=187
(PID.TID 0000.0001) // |--J--|**0123456|890123456|890123456|890123450|234567890|234567890|234567890|234567234|678901234|678901234|678901234|678945678|012345678|012345678|012345678|016789012|456789012|456789012|456789012|890123456|890123456|890123456|89012345
(PID.TID 0000.0001) //     35 ....................................................................................................................................................................................................................................
(PID.TID 0000.0001) //     34 ....................................................................................................................................................................................................................................
(PID.TID 0000.0001) //     33 ....................................................................................................................................................................................................................................
(PID.TID 0000.0001) //     32 ....................................................................................................................................................................................................................................
(PID.TID 0000.0001) //     31 ....................................................................................................................................................................................................................................
(PID.TID 0000.0001) //     30 ....................................................................................................................................................................................................................................
(PID.TID 0000.0001) //     29 ....................................................................................................................................................................................................................................
(PID.TID 0000.0001) //     28 ....................................................................................................................................................................................................................................
(PID.TID 0000.0001) //     27 ....................................................................................................................................................................................................................................
(PID.TID 0000.0001) //     26 ....................................................................................................................................................................................................................................
(PID.TID 0000.0001) //     25 ....................................................................................................................................................................................................................................
(PID.TID 0000.0001) //     24 ....................................................................................................................................................................................................................................
(PID.TID 0000.0001) //     23 ....................................................................................................................................................................................................................................
(PID.TID 0000.0001) //     22 ....................................................................................................................................................................................................................................
(PID.TID 0000.0001) //     21 ....................................................................................................................................................................................................................................
(PID.TID 0000.0001) //     20 ....................................................................................................................................................................................................................................
(PID.TID 0000.0001) //     19 ....................................................................................................................................................................................................................................
(PID.TID 0000.0001) //     18 ....................................................................................................................................................................................................................................
(PID.TID 0000.0001) //     17 ....................................................................................................................................................................................................................................
(PID.TID 0000.0001) //     16 ....................................................................................................................................................................................................................................
(PID.TID 0000.0001) //     15 ....................................................................................................................................................................................................................................
(PID.TID 0000.0001) //     14 ....................................................................................................................................................................................................................................
(PID.TID 0000.0001) //     13 ....................................................................................................................................................................................................................................
(PID.TID 0000.0001) //     12 ....................................................................................................................................................................................................................................
(PID.TID 0000.0001) //     11 ....................................................................................................................................................................................................................................
(PID.TID 0000.0001) //     10 ....................................................................................................................................................................................................................................
(PID.TID 0000.0001) //      9 ....................................................................................................................................................................................................................................
(PID.TID 0000.0001) //      8 ....................................................................................................................................................................................................................................
(PID.TID 0000.0001) //      7 ....................................................................................................................................................................................................................................
(PID.TID 0000.0001) //      6 ....................................................................................................................................................................................................................................
(PID.TID 0000.0001) //      5 ....................................................................................................................................................................................................................................
(PID.TID 0000.0001) //      4 ....................................................................................................................................................................................................................................
(PID.TID 0000.0001) //      3 ....................................................................................................................................................................................................................................
(PID.TID 0000.0001) //      2 ....................................................................................................................................................................................................................................
(PID.TID 0000.0001) //      1 ....................................................................................................................................................................................................................................
(PID.TID 0000.0001) //      0 ....................................................................................................................................................................................................................................
(PID.TID 0000.0001) //     -1 ....................................................................................................................................................................................................................................
(PID.TID 0000.0001) //     -2 ....................................................................................................................................................................................................................................
(PID.TID 0000.0001) // =======================================================
(PID.TID 0000.0001) // END OF FIELD                                          =
(PID.TID 0000.0001) // =======================================================
(PID.TID 0000.0001) 
(PID.TID 0000.0001) // =======================================================
(PID.TID 0000.0001) // Field Model Ro_surf (ini_masks_etc) at iteration          1
(PID.TID 0000.0001) // CMIN =          4.782978183284864E+04
(PID.TID 0000.0001) // CMAX =          1.000000000000000E+05
(PID.TID 0000.0001) // CINT =          1.932230302487087E+03
(PID.TID 0000.0001) // SYMBOLS (CMIN->CMAX): -abcdefghijklmnopqrstuvwxyz+
(PID.TID 0000.0001) //                  0.0: .
(PID.TID 0000.0001) // RANGE I (Lo:Hi:Step):(  -2: 195:   1)
(PID.TID 0000.0001) // RANGE J (Lo:Hi:Step):(  35:  -2:  -1)
(PID.TID 0000.0001) // RANGE K (Lo:Hi:Step):(   1:   1:   1)
(PID.TID 0000.0001) // =======================================================
(PID.TID 0000.0001) K =   1
(PID.TID 0000.0001) //                I=7       I=17      I=27      I=31      I=41      I=51      I=61      I=65      I=75      I=85      I=95      I=99      I=109     I=119     I=129     I=133     I=143     I=153     I=163     I=167     I=177     I=187
(PID.TID 0000.0001) // |--J--|**0123456|890123456|890123456|890123450|234567890|234567890|234567890|234567234|678901234|678901234|678901234|678945678|012345678|012345678|012345678|016789012|456789012|456789012|456789012|890123456|890123456|890123456|89012345
(PID.TID 0000.0001) //     35 ...++++++++++++++zy+yxxxxxz+zwwnnnn......smnszzzzzzxxxxwqpoousuwvyyww+++x......++++++++++++xwxzyywuklorsx++++++......++++++++++++++++++++++++++++++++......+++++++++++++++++zxxyz++++++++++......++++++++++++++++++++++++++++++++...
(PID.TID 0000.0001) //     34 ...+++++++++++++++zzxwvwwvz+++onmno......unnw+zzzzzyxwwtlomnsrvvvxyvy+++y......+++++++++++zxyyyyxwulmnnnx++++++......++++++++++++++++++++++++++++++++......+++++++++++++++++xxxwwxwy+++++++......++++++++++++++++++++++++++++++++...
(PID.TID 0000.0001) //     33 ...+++++++++++++++zxrswwwxyzstqssuu......uonx+yzzyyxxwrpslmlquvvtwywx+++z......++++++++++zxxyyyyxwunmnopw++++++......++++++++++++++++++++++++++++++++......+++++++++++++++++zyxwwwwv+++++++......++++++++++++++++++++++++++++++++...
(PID.TID 0000.0001) //     32 ++++++++++++++++++xvwwwwtwxwvptxxyxvooxyxvoonzwwzxxnmmkloppsstttty++xx+xxxvt+++++++++++++yxyyyxxxxvqmnqqu+++++++++++++++++++++++++++++++++++++++++++++++++++++++++++++++++++zyxwwwwvy+++++++++++++++++++++++++++++++++++++++++++++++
(PID.TID 0000.0001) //     31 ++++++++++++++++zvuy+zzwxvzwswxwxyzwpoxyzwpoorsoxxoifmsvvunnsstrwzz+zyzxxz+++++++++++++zzxxxyxyxyxwvqnssy+++++++++++++++++++++++++++++++++++++++++++++++++++++++++++++++++++zyyxwwwwwxy+++++++++++++++++++++++++++++++++++++++++++++
(PID.TID 0000.0001) //     30 +++++++++++++++++ww++++y++++++xwwxzztlwxzztlotussooediolggfdiosuyz++++wx+++++++++++++++zzxxxyzyxyxwwtpuw+++++++++++++++++++++++++++++++++++++++++++++++++++++++++++++++++zzzyyxxxwxxwvw+++++++++++++++++++++++++++++++++++++++++++++
(PID.TID 0000.0001) //     29 +++++++++++++++++xxwvw++++++++wwwxyzzqwxyzzqmoutolkke-aaaacdhmrvyz++++++++++++++++++++zzxwwxy+zyyxxwupsw+++++++++++++++++++++++++++++++++++++++++++++++++++++++++++++++++yyzzyxxxxxxxxxy++++++++++++++++++++++++++++++++++++++++++++
(PID.TID 0000.0001) //     28 ++++++++++++++++vovwxxxyzzzzzxvwwwxyzxwwxyzxonnstnpymbaaaa-bektuyxxy+++++++++++++++++++yxxxxz++zyxxwvprx++++++++++++++++++++++++++++++++++++++++++++++++++++++++++++++++zyyzzyxxxyyyyzyyz+++++z+++++++++++++++++++++++++++++++++++++
(PID.TID 0000.0001) //     27 +++++++++++++++yuwxxxxxwxzzzyxxvvvwxyzvvwxyzwvurppxyyia--bbbcrvwyxwy++++++++++++++++++++zxxyz+++yxxxwuty++++++++++++++++++++++++++++++++++++++++++++++++++++++++++++++++xwyz+zyxxyzzzzzzz+++++z+++++++++++++++++++++++++++++++++++++
(PID.TID 0000.0001) //     26 ++++++++++++++zxxxyxwwwxxyxxxyxxwwwwxzwwwwxzzx+yxxzxxxxmmmohhntwwxww++++++++++++++++++++++yzx++zyxxxxtsy+++++++++++++++++++++++++++++++++++++++++++++++++++++++++++++++ywvy++zyxxyxyzz+++z+++++z++++++++++++++++++++++++++++++++++++
(PID.TID 0000.0001) //     25 ++++++++++++++yyyyyxutvwwwxwxyxw+uwwxz+uwwxzzwx+++zxxxxxzwwroqvxxyvv+++++++++++++++++++++++xz+yyzyxxwssz+++++++++++++++++++++++++++++++++++++++++++++++++++++++++++++++xvuw+++yyxlkltxxyzy++++zy++++++++++++++++++++++++++++++++++++
(PID.TID 0000.0001) //     24 ++++++++++++++yyyyyxwwwwppxwxyxw+pswxy+pswxyzz++++zxxxxx+ywttuxz++++++++++++++++++++++++xz+vy+yzzyxxvtt+++++++++++++++++++++++++++++++++++++++++++++++++zz+++++++++++++wxxzzzzzwifeeeltwyz++++yz++++++++++++++++++++++++++++++++++++
(PID.TID 0000.0001) //     23 ++++++++++++++zyyyyxxvwxxxwwxxxxvxnwwwvxnwwwz++++++xxyx+++zwwwxz+++vy+++++++++++++++++++mqzzxwyy+yyxvtrx++++++++++++++++++++++++++++++++++++++++++++++++zz++++++++++w+zsnyyzzzygdlnzneghsxwy++sxwy++++++++++++++xvvxz+++++++++++++++
(PID.TID 0000.0001) //     22 ++++++++++++++zyyyyxxxxyyxwwwwxwoxnsx+oxnsx++++++++yxy+++++yxxwx+++x++++++++++++++++++++smrzzzxz+zzywvsvxz++++++++++++++++++++++++++++++++++++++++++++++xxyz+++++++++++vqmwzzyvfg++++++wrtuwwzrtuwwz+++++++++++slkiknqv+++++++++++++
(PID.TID 0000.0001) //     21 ++++++++++++++yxxyyyyxxyyxwvwwxpmvx+++mvx+++++++++++wx++++++zyzw+++yz+++++++++++++++++++sklnuxwz+z++wvvqwyz+++++++++++++++++++++++++++++++++++++++++++++xxxxz++++++y++++vvlrwngn++++++++++xvuv++xvuvyy+++w+++++plkikkllt++++++++++++
(PID.TID 0000.0001) //     20 ++++++++++++++xxxyyxxwxxxxwwxxxolquvw+lquvw+++++++++wz++++++z+++++++yy++++++++++++++++z+vkklnvsy+++++uxxx+z+++++++++++++++++++++++++++++++++++++++++++++xxyxxxz++++z+++zy++sms++++++++++++++wv++++wvy++++vvz++xplkiikllq++++++++++++
(PID.TID 0000.0001) //     19 +++++++++++++++xxyyyyyuwwxwwwxxpmpwxy+mpwxy++++++++++x++++++y+++++x+yw+++++++z++++++++w++rmmnws++++++yxyz+++++++++++++++++++++++++++++++++++++++++++++++yyyyywwz+++++++u++++++++++++++++++++++++++++++++++sqx+xsmkiilmtw++++++++++++
(PID.TID 0000.0001) //     18 z++++++++++++++++++++zwwxxxwwvvvtwxy++twxy+++++++++++++++++wwx+++wx+++++++++wv+++zzz++++++wsqz+++++++++z++++++++++++++++++++++++++++++++++++++++++++++++zxyyyxxz+++++wwy+++++++++++++++++++++++++++++++++++wtzxrmlihiklmw+++++++++++
(PID.TID 0000.0001) //     17 z+++++++++++++++++++++yxxyxxwrvptyz+++tyz++++++++++++++++++ywz+zxwwz++z+++++wuxzzyyy++++++++z+++++++++zy++++++++++++++++++++++++++++++++++++++++++++++++yyxyyzzz+++++vv++++++++++++++++++++++++++++++++++++wvvvrmkighiikq+++++++++++
(PID.TID 0000.0001) //     16 z+++++++++++++++++++++yxxyxxvouosz++++sz++++++++++++++++++++wy++yy+vy+zyyyy++yvxz+++++++++++++++++++++wyy++++++++++++++++++++++++++++++++++z++++++++++++xxxyyyyz++++zpy++++++++++++++++++++++++++++++++++++wuooomkkiiiikp+++++++++++
(PID.TID 0000.0001) //     15 yzzzxz+++++++++++++++++xxxxxvqurt+++++t++++++++++++++++++++++wz++z+xx+++ynnp++wrxy++vvx+++zx+++++++++zwxw+++++++++++++++++++++++++++++++++++++++++xxz+++yyxxxyyz++++zw+++++++++++++++++++++++++++++++++++++zvqsvnllkiiklp+++++++++++
(PID.TID 0000.0001) //     14 yyyyxxx++++++++++++++++ywwwwvtttw+++++w+++++++++++++++++++++++yyyz+++++++++p+zwswx+zzwwwx++++++++++++zxwy+++++++++++++++++++++++++++++++++++++++++++wx++xxxwwwxxyzzxnx++++++++++++++++++++++++++++++++++++++vovx+qnmkklmq+++++++++++
(PID.TID 0000.0001) //     13 xyxxxxy++++++++++++++++xuvvvttrsx+++++x+++++++++++++++++++++++++++y+z++++++++zwwvxz+++zyy++++++y++++zzxwxww+++++++++++++++++++++++++++++++++++++++++++++wwvuuuvwwvpnm+++++++++++++++++++++++++++++++++++++++zpvy+zpmlllpw+++++++++++
(PID.TID 0000.0001) //     12 xxwwwy+++++++++++++++++urtvuutuwxz++++xz++++++++++++++++++++++++++++++++z+++ywwwwxzzzzzyy++yx+++y++zxwwwxzwx++++++++++++++++++++++++++++++++z+++++++++++wvqnlkorsrnos+++++++++++++++++++++++++++++++++++++++++++++rnmlmu++++++++++++
(PID.TID 0000.0001) //     11 xwwwwz+++++++++++++++++uuuvvvvvwwz++v+wz++v++++++++++++++++++++++++++zzzy++z+xtwwxzzzzzzz++z++zzzzywwssvy++y++++++++++++++++++++++++++++++++++++++++++++tqmmmlnronu+++++++++++++++++++++++++++++++++++++++++++++++qonnpz++++++++++++
(PID.TID 0000.0001) //     10 wwwwx++++++++++++++++++uvvvvvtvy+++vv++++vv+++++++++++++++++++++++++zxxyyy+z+vwxvxzzzzzzzzzzz+zyxxywuuqw++++++++++++++++++++++++++++++++z+++++++++++++++pnnnnootw+++++++++++++++++++++++++++++++++++++++++++++++++srswx+++++++++++++
(PID.TID 0000.0001) //      9 xwwww++++++++++++++++++xstvvvvw++++rv++++rv++++++++++++++++++++++++zyyxyyyyz+zxyzzzzzzzzzzwxz+zwwxxyyyww++++++++++++++++++++++++++++++++++++++++++++++++usqonrwxxx++++++++++++++++++++++++++++++++++++++++++++++++++++++++++++++++++
(PID.TID 0000.0001) //      8 xwvvy+++++++++++++++++++ruvvvwz++++uz++++uz++++++++++++++++++++++yxxyxxxxyyy+wwz++zzzzzzzxzzzzzxxxxyxxwvyyy+++++++++++++++++++++++++++++++++++++++++++++wsqpnsuz++++++++++++++++++++++++++++++++++++++++++++++++++++++++++++++++++++
(PID.TID 0000.0001) //      7 wwy+++++++++++++++++++++tvvuss+++++w+++++w+++++++++++++++++++++++yxxxxxxxyzz+svs+zzzzzzzzyzzzzzxxxxwwwuwvxxyz+++++z+++++++++++++++++++++++++++yxwxww+w+++yuwxx++++++++++++++++++++++++++++++++++++++++++++++++++++++++++++++++++++++
(PID.TID 0000.0001) //      6 vx++++++++++++++++++++++xwutpt+++++++++++++++++++++++++++++++++++yxxxxxxxz+z+wpt+wwzzzzyxzzzzzzxxxwvtwxxwxw+xz++++xz++++++++++++++++++++y++++zxyzyywy+++++++++++++++++++++++++++++++++++++++++++++++++++++++++++++++++++++++++++++++
(PID.TID 0000.0001) //      5 wy++++++++++++++++++++++zutrp++++++++++++++++++++++++++++++++++++yxxyyyyyz+zxxtqownz++zyxzzzzzzyyxwrvwwxxxw++xy++++xy++++++++++++++++++vw+++yyxyzzzzx+++++++++++++++++++++++++++++++++++++++++++++++++++++++++++++++++++++++++++++++
(PID.TID 0000.0001) //      4 +++++++++++++++++++++++++xxx+++++++++++++++++++++++++++++++++++++yyyzzzzzzyzwwxsnnmz++zyyyyzzywwtuwuvwwyxwx+++xy++++xy++++++++++++++++vn++zxwyyzzzzzz+++++++++++++++++++++++++++++++++++++++++++++++++++++++++++++++++++++++++++++++
(PID.TID 0000.0001) //      3 ++++++++++++++++++++++++++++++++++++++++++++++++++++++++++++++++++++++++zzyywxxsmnszzzzzzxxxxwqpoousuwvyyww+++xt++++xt++++++++++++++++pp++zzzyzzzzyyz+++++++++++++++++++++++++++++++++++++++++++++++++++++++++++++++++++++++++++++++
(PID.TID 0000.0001) //      2 +++++++++++++++++++++++++++++++++++++++++++++++++++++++++++++++++++++++++yyyxyyunnw+zzzzzyxwwtlomnsrvvvxyvy+++yv++++yv+++++++++++++++yn+++++yyz++yyy++++++++++++++++++++++++++++++++++++++++++++++++++++++++++++++++++++++++++++++++
(PID.TID 0000.0001) //      1 +++++++++++++++++++++++++++++++++++++++++++++++++++++++++++++++++++++++++++zzzxuonx+yzzyyxxwrpslmlquvvtwywx+++zxz+++zxz++++++++++++++yn++++yyyyzzzzy+++++++++++++++++++++++++++++++++++++++++++++++++++++++++++++++x++++++w++++++++z
(PID.TID 0000.0001) //      0 ...++++++++++++++++++++++++++++++++......++++++++++++++++++++++++++++++++......voonzwwzxxnmmkloppsstttty++xx+xx......xx++++++++++++++yy++zyyyxxxyzz++......++++++++++++++++++++++++++++++++......+++++++++++++++++zw+++++++yxzz++...
(PID.TID 0000.0001) //     -1 ...++++++++++++++++++++++++++++++++......++++++++++++++++++++++++++++++++......wpoorsoxxoifmsvvunnsstrwzz+zyzxx......xxx+++++++++++++y++++zyyxxxyz+++......++++++++++++++++++++++++++++++++......+++++++++++++++++x+++++++wwzzyyy...
(PID.TID 0000.0001) //     -2 ...++++++++++++++++++++++++++++++++......++++++++++++++++++++++++++++++++......ztlotussooediolggfdiosuyz++++wx+......+zw++++++++++++zz++++zxxxxxyz+++......++++++++++++++++++++++++++++++++......+++++++++++++++++x+++++++wyzzyyz...
(PID.TID 0000.0001) // =======================================================
(PID.TID 0000.0001) // END OF FIELD                                          =
(PID.TID 0000.0001) // =======================================================
(PID.TID 0000.0001) 
(PID.TID 0000.0001) // =======================================================
(PID.TID 0000.0001) // Field hFacC at iteration          1
(PID.TID 0000.0001) // CMIN =          2.000000000000000E-01
(PID.TID 0000.0001) // CMAX =          1.000000000000000E+00
(PID.TID 0000.0001) // CINT =          2.962962962962963E-02
(PID.TID 0000.0001) // SYMBOLS (CMIN->CMAX): -abcdefghijklmnopqrstuvwxyz+
(PID.TID 0000.0001) //                  0.0: .
(PID.TID 0000.0001) // RANGE I (Lo:Hi:Step):(  -2: 195:   1)
(PID.TID 0000.0001) // RANGE J (Lo:Hi:Step):(  35:  -2:  -1)
(PID.TID 0000.0001) // RANGE K (Lo:Hi:Step):(   1:   1:   1)
(PID.TID 0000.0001) // =======================================================
(PID.TID 0000.0001) K =   1
(PID.TID 0000.0001) //                I=7       I=17      I=27      I=31      I=41      I=51      I=61      I=65      I=75      I=85      I=95      I=99      I=109     I=119     I=129     I=133     I=143     I=153     I=163     I=167     I=177     I=187
(PID.TID 0000.0001) // |--J--|**0123456|890123456|890123456|890123450|234567890|234567890|234567890|234567234|678901234|678901234|678901234|678945678|012345678|012345678|012345678|016789012|456789012|456789012|456789012|890123456|890123456|890123456|89012345
(PID.TID 0000.0001) //     35 ...++++++++++++++vpyojigefrxwb-..............xwutrthhgj-.......-.nlad+++h......++++++++++++iajslkd......g++++++......++++++++++++++++++++++++++++++++......+++++++++++++++++tghpuy+++++++++......++++++++++++++++++++++++++++++++...
(PID.TID 0000.0001) //     34 ...+++++++++++++++xsib.dd.v+++..............a+tsuuslfa-..........jl.k+++p......+++++++++++ugknqojd......g++++++......++++++++++++++++++++++++++++++++......+++++++++++++++++hff-cdco+++++++......++++++++++++++++++++++++++++++++...
(PID.TID 0000.0001) //     33 ...+++++++++++++++wd..-bbglt................i+otupoggc...........cp-g+++v......++++++++++xhgknplid......-++++++......++++++++++++++++++++++++++++++++......+++++++++++++++++uogdd--.+++++++......++++++++++++++++++++++++++++++++...
(PID.TID 0000.0001) //     32 ++++++++++++++++++f.cd-d.-j-...fiph...iph....t-bsjf..............mxyfh+jhj..++++++++++++zlflkljijg.......++++++++++++++++++++++++++++++++++++++++++++++++++++++++++++++++++yrmfcbb-.o+++++++++++++++++++++++++++++++++++++++++++++++
(PID.TID 0000.0001) //     31 ++++++++++++++++u..m+ttai.w-.-hcjmt-..jmt-......jg..............buu+vlvehw+++++++++++++wvkgimjkilgb.....m++++++++++++++++++++++++++++++++++++++++++++++++++++++++++++++++++zsonh--cdbdp+++++++++++++++++++++++++++++++++++++++++++++
(PID.TID 0000.0001) //     30 +++++++++++++++++c-++++p++++++g-bhtr..bhtr......................oqx+z+ch+++++++++++++++uuifipunjohd-...d+++++++++++++++++++++++++++++++++++++++++++++++++++++++++++++++++wswoljjibhi-.-+++++++++++++++++++++++++++++++++++++++++++++
(PID.TID 0000.0001) //     29 +++++++++++++++++ff-.bx+++++++---fktx.-fktx.....................mwx+++z+++++++++++++++sskcdiqxsopjfc...d++++++++++++++++++++++++++++++++++++++++++++++++++++++++++++++++xoluumiiedgigfhp++++++++++++++++++++++++++++++++++++++++++++
(PID.TID 0000.0001) //     28 ++++++++++++++++...-iihlwrttuh.-aafkxiaafkxi.......k............phio+++++++++++++++++++qigfjt+zuoigd...f++++++++++++++++++++++++++++++++++++++++++++++++++++++++++++++++wlnvxlkjjoploqqqt+++++t+++++++++++++++++++++++++++++++++++++
(PID.TID 0000.0001) //     27 +++++++++++++++l.-ffjjecjtttphg...cdlw..cdlwc.....emm..........aki-q++++++++++++++++++++tijnv++ypihdb..o+++++++++++++++++++++++++++++++++++++++++++++++++++++++++++++++zhbmvyuniglsvwwwvw+++++w+++++++++++++++++++++++++++++++++++++
(PID.TID 0000.0001) //     26 ++++++++++++++uigjliccdeemjijohf---ahw---ahwvf+lffsikji........bcfab++++++++++++++++++++++orj++wpkjfd..p+++++++++++++++++++++++++++++++++++++++++++++++++++++++++++++++m-.kzzwlijliqsvxxxu++++xu++++++++++++++++++++++++++++++++++++
(PID.TID 0000.0001) //     25 +++++++++++++yonlnof...adbh-goid+.-akt+.-aktvdf+++wfhhhjw--....jiq..+++++++++++++++++++++++grxonrkji-..r+++++++++++++++++++++++++++++++++++++++++++++++++++++++++++++++h..ayyxooi....jilvo++++vo++++++++++++++++++++++++++++++++++++
(PID.TID 0000.0001) //     24 +++++++++++++yoklloh--ca..fbgmi-+..aho+..ahott++++uigghi+pd...jwy++++++++++++++++++++++zis+.kxorulhj...+++++++++++++++++++++++++++++++++++++++++++++++++uw+++++++++++++bjktvxuqc.......amqy+++mqy+++++++++++++++++++++++++++++++++++
(PID.TID 0000.0001) //     23 +++++++++++++yslllkfh.-iii-aghid.j.-bc.j.-bcu++++++ifkd+++q-a-ht+++.m++++++++++++++++++x..vshaqqyqlj...e++++++++++++++++++++++++++++++++++++++++++++++++uvz+++++++++b+v..mmvwrm....s.....fdo++.fdo++++++++++++++g..ew+++++++++++++++
(PID.TID 0000.0001) //     22 +++++++++++++ysonlmijghkmi--adi-.j..f+.j..f++++++++lfk+++++ogj-f+++j++++++++++++++++++++...sxxeuyrsld...jv++++++++++++++++++++++++++++++++++++++++++++++iklx+++++++++++...dvwn...++++++a...-ds...-ds+++++++++++........y++++++++++++
(PID.TID 0000.0001) //     21 +++++++++++++zojjlmmlhilmfb.cch...g+++..g+++++++++++ae+++++ytlqb+++ls+++++++++++++++++++.....jdtxuz+d...dmr+++++++++++++++++++++++++++++++++++++++++++++fgfhu++++++k+++z....a...++++++++++i...++i...qk+++b+++++.........++++++++++++
(PID.TID 0000.0001) //     20 ++++++++++++++gehkojjafejicbggg.....-+....-+++++++++cw++++++txxz++zxkl++++++++++++++++u+.......l+++++.gjhxw+++++++++++++++++++++++++++++++++++++++++++++iilggiv++++w+++ro+x...++++++++++++++a.++++a.q++++..r++g.........++++++++++++
(PID.TID 0000.0001) //     19 ++++++++++++++ziiooono.--gcadgf...cem+..cem++++++++++j++++++o+++++j+pa+++++++u++++++++c+z....-.++++++ojpv+++++++++++++++++++++++++++++++++++++++++++++++pmkkkacvyz+x+++.++++++++++++++++++++++++++++++++++..g+d........-++++++++++++
(PID.TID 0000.0001) //     18 w++++++++++++++++++++u-cdgfdb....-iq++.-iq+++++++++++++++++-cj+++-d+++++++++c.+++vuv++++++-..w++++++++zs++++++++++++++++++++++++++++++++++++++++++++++++ujlnnjfry++++--l+++++++++++++++++++++++++++++++++++b.vg.........-+++++++++++
(PID.TID 0000.0001) //     17 s+++++++++++++++++++++kfhkkh-....ow+++.ow++++++++++++++++++p-w+wj-dv++u+++++-.fwxpok++++++++v++++++++ztk++++++++++++++++++++++++++++++++++++++++++++++++nkjpqssuz++zx..++++++++++++++++++++++++++++++++++++a.............+++++++++++
(PID.TID 0000.0001) //     16 wzy+++++++++++++++++++qfgkig.....w++++.w++++++++++++++++++++-kz+ll+.l+wqopn++m.dsy+++++++++++++++++++ycnn++++++++++++++++++++++++++++++++++u++++++++++++jiilolqxz+++u.q++++++++++++++++++++++++++++++++++++c.............+++++++++++
(PID.TID 0000.0001) //     15 osruht+++++++++++++++++jefge.....+++++.++++++++++++++++++++++bw++x+fi++zn...++c.iozz..iz++wh+++++++++ucf-+++++++++++++++++++++++++++++++++++++++++jjt+++oljijkluy+++s-+++++++++++++++++++++++++++++++++++++v.............+++++++++++
(PID.TID 0000.0001) //     14 lomofgh++++++++++++++++n----....-+++++-+++++++++++++++++++++++oppw+++++++++.+td.bjyurcc-e++++++++++z+ui-k+++++++++++++++++++++++++++++++++++++++++++ch++hggdddgiluve.h++++++++++++++++++++++++++++++++++++++...iz........+++++++++++
(PID.TID 0000.0001) //     13 jnfgfhm++++++++++++++++g........f+++++f+++++++++++++++++++++++++++mysy+++++++t--.iuyyywql++++++p++yyvtg-i-c+++++++++++++++++++++++++++++++++++++++++++++db.....-a....+++++++++++++++++++++++++++++++++++++++x..m+v......d+++++++++++
(PID.TID 0000.0001) //     12 jhcd-p+++++++++++++++++........-hr++++hr++++++++++++++++++++++++++++++++xz+zpadbdgtvwwtqn++mgx+xl+zugd--gs-h++++++++++++++++++++++++++++++++v+++++++++++-............+++++++++++++++++++++++++++++++++++++++++++++......++++++++++++
(PID.TID 0000.0001) //     11 i-bdcu+++++++++++++++++........-dr++.+dr++.++++++++++++++++++++++++++rvsqz+w+i.bdesrtvtuvyzvzzvruup-a...p+xo++++++++++++++++++++++++++++++++++++++++++++...........+++++++++++++++++++++++++++++++++++++++++++++++.....w++++++++++++
(PID.TID 0000.0001) //     10 b-b-dy+++++++++++++++++........nx++..+x++..+++++++++++++++++++++++++whinqpxv+.-g.frsrrttutwrxxtnijpc...-+z++++++++++++++++++++++++++++++r+++++++++++++++........-x++++++++++++++++++++++++++++++++++++++++++++++++...-j+++++++++++++
(PID.TID 0000.0001) //      9 hc--c++++++++++++++++++i......-y+++..++++..++++++++++++++++++++++zyuqljklont+wjlvrtsrsutusdexxq-deioomdd++++++++++++++++++++++++++++++++z+++++++++++++++......cijh++++++++++++++++++++++++++++++++++++++++++++++++++++++++++++++++++
(PID.TID 0000.0001) //      8 id..o+++++++++++++++++++.....-sx+++.u++++.u++++++++++++++++++++++nehkjiggmop+--t+xtssuutsgrwwwtfefimif-.nnn++++++++++++++++++++++++++++x++++++++++++++++d......v++++++++++++++++++++++++++++++++++++++++++++++++++++++++++++++++++++
(PID.TID 0000.0001) //      7 -bo+++++++++++++++++++++......y++++c+++++c+++++++++++++++++++++++mgfihffgout+...+wvttrstrlwwwuthhhhdb-.-.fjpu+++++u+++++++++++++++++++++++++++nhadbbzc+++m.-gg++++++++++++++++++++++++++++++++++++++++++++++++++++++++++++++++++++++
(PID.TID 0000.0001) //      6 .d++++++++++++++++++++++f-....+++++++++++++++++++++++++++++++++++mhgihffiuyv+-..+bbutwvnerwwwwuhihd..-di-ia+hv++++hv++++++++++++++++++++k+++xrjlrmkcly++++++++++++++++++++++++++++++++++++++++++++++++++++++++++++++++++++++++++++++
(PID.TID 0000.0001) //      5 -p++++++++++++++++++++++s....++++++++++++++++++++++++++++++++++++oijknmmqvyvgh...-.wzzulisuvwvslkg-..-bjhib++jl++++jl++++++++++++++++++.d+++mlhntruvj+++++++++++++++++++++++++++++++++++++++++++++++++++++++++++++++++++++++++++++++
(PID.TID 0000.0001) //      4 +++++++++++++++++++++++++fee+++++++++++++++++++++++++++++++++++++okntuttttnv-cf....x++tmpqnsup--..-..--nece+++el++++el++++++++++++++++..++tfdnprttwwu+++++++++++++++++++++++++++++++++++++++++++++++++++++++++++++++++++++++++++++++
(PID.TID 0000.0001) //      3 +++++++++++++++++++++++++++++++++++++++++++++++++++++++++++++++++++++++zurmnbji....xwutrthhgj-.......-.nlad+++h.++++h.++++++++++++++++..+zwvtptvvvnpx+++++++++++++++++++++++++++++++++++++++++++++++++++++++++++++++++++++++++++++++
(PID.TID 0000.0001) //      2 +++++++++++++++++++++++++++++++++++++++++++++++++++++++++++++++++++++++++qpphmp...a+tsuuslfa-..........jl.k+++p.++++p.+++++++++++++++n.++++xnouyynmpy++++++++++++++++++++++++++++++++++++++++++++++++++++++++++++++++++++++++++++++z
(PID.TID 0000.0001) //      1 +++++++++++++++++++++++++++++++++++++++++++++++++++++++++++++++++++++++++zyxtth...i+otupoggc...........cp-g+++vjw+++vjw++++++++++++++p.++zzpomouvtrqz++++++++++++++++++++++++++++++++++++++++++++++++++++++++++++++h++++++cy+++++++u
(PID.TID 0000.0001) //      0 ...++++++++++++++++++++++++++++++++......++++++++++++++++++++++++++++++++..........t-bsjf..............mxyfh+jh......hh++++++++++++++on++xqqlggiqtu++......++++++++++++++++++++++++++++++++......+++++++++++++++++tc++++++zljuxyz...
(PID.TID 0000.0001) //     -1 ...++++++++++++++++++++++++++++++++......++++++++++++++++++++++++++++++++......-......jg..............buu+vlveh......jeh+++++++++++++qz+++snkgffmtz++......++++++++++++++++++++++++++++++++......+++++++++++++++++j+++++++bcvwppq...
(PID.TID 0000.0001) //     -2 ...++++++++++++++++++++++++++++++++......++++++++++++++++++++++++++++++++......r......................oqx+z+ch+......+vcz+++++++++++uw++++vijiffmt+++......++++++++++++++++++++++++++++++++......+++++++++++++++++j+++++++bkuwnmr...
(PID.TID 0000.0001) // =======================================================
(PID.TID 0000.0001) // END OF FIELD                                          =
(PID.TID 0000.0001) // =======================================================
(PID.TID 0000.0001) 
(PID.TID 0000.0001) // =======================================================
(PID.TID 0000.0001) // Field hFacW at iteration          1
(PID.TID 0000.0001) // CMIN =          2.000000000000000E-01
(PID.TID 0000.0001) // CMAX =          1.000000000000000E+00
(PID.TID 0000.0001) // CINT =          2.962962962962963E-02
(PID.TID 0000.0001) // SYMBOLS (CMIN->CMAX): -abcdefghijklmnopqrstuvwxyz+
(PID.TID 0000.0001) //                  0.0: .
(PID.TID 0000.0001) // RANGE I (Lo:Hi:Step):(  -2: 195:   1)
(PID.TID 0000.0001) // RANGE J (Lo:Hi:Step):(  35:  -2:  -1)
(PID.TID 0000.0001) // RANGE K (Lo:Hi:Step):(   1:   1:   1)
(PID.TID 0000.0001) // =======================================================
(PID.TID 0000.0001) K =   1
(PID.TID 0000.0001) //                I=7       I=17      I=27      I=31      I=41      I=51      I=61      I=65      I=75      I=85      I=95      I=99      I=109     I=119     I=129     I=133     I=143     I=153     I=163     I=167     I=177     I=187
(PID.TID 0000.0001) // |--J--|**0123456|890123456|890123456|890123450|234567890|234567890|234567890|234567234|678901234|678901234|678901234|678945678|012345678|012345678|012345678|016789012|456789012|456789012|456789012|890123456|890123456|890123456|89012345
(PID.TID 0000.0001) //     35 ...++++++++++++++vppojigeefrwb-...............wutrrhhgg-..........laad++h......++++++++++++iaajlkd.......g++++++.....+++++++++++++++++++++++++++++++++.....+++++++++++++++++tgghpuy+++++++++.....+++++++++++++++++++++++++++++++++..
(PID.TID 0000.0001) //     34 ...+++++++++++++++xsib..d..v++...............atssuslfa-...........j..k++p......+++++++++++uggknojd.......g++++++.....+++++++++++++++++++++++++++++++++.....+++++++++++++++++hff--ccco+++++++.....+++++++++++++++++++++++++++++++++..
(PID.TID 0000.0001) //     33 ...+++++++++++++++wd...-bbgl.................iootpoggc............c--g++vj.....++++++++++xhggknlid.......-++++++.....+++++++++++++++++++++++++++++++++.....+++++++++++++++++uogdd--..+++++++.....+++++++++++++++++++++++++++++++++..
(PID.TID 0000.0001) //     32 ++++++++++++++++++f..c--..--....fih...fih.....--bjf...............mxffhjhh..++++++++++++zlffkkjiig........+++++++++++++++++++++++++++++++++++++++++++++++++++++++++++++++++yrmfcbb-..o++++++++++++++++++++++++++++++++++++++++++++++
(PID.TID 0000.0001) //     31 ++++++++++++++++u...mttaa..-..-ccjm-..cjm-.......g...............buuvlleehw++++++++++++wvkggijjiigb......m+++++++++++++++++++++++++++++++++++++++++++++++++++++++++++++++++zsonh---cbbdp++++++++++++++++++++++++++++++++++++++++++++
(PID.TID 0000.0001) //     30 +++++++++++++++++c--+++pp+++++g--bhr..-bhr.......................oqxzzcch++++++++++++++uuiffipnjjhd-....d++++++++++++++++++++++++++++++++++++++++++++++++++++++++++++++++wssoljjibbh-..-++++++++++++++++++++++++++++++++++++++++++++
(PID.TID 0000.0001) //     29 +++++++++++++++++ff-..bx++++++----fkt.--fkt......................mwx++zz++++++++++++++sskccdiqsoojfc....d+++++++++++++++++++++++++++++++++++++++++++++++++++++++++++++++xollumiieddggffhp+++++p+++++++++++++++++++++++++++++++++++++
(PID.TID 0000.0001) //     28 ++++++++++++++++....-ihhlrrtth..-aafki-aafki.....................hhio++++++++++++++++++qigffjtzuoigd....f+++++++++++++++++++++++++++++++++++++++++++++++++++++++++++++++wllnvlkjjjolloqqqt++++qt++++++++++++++++++++++++++++++++++++
(PID.TID 0000.0001) //     27 +++++++++++++++l..-ffjeccjttphg....cdl...cdlc......em...........ai--q+++++++++++++++++++tiijnv+ypihdb...o++++++++++++++++++++++++++++++++++++++++++++++++++++++++++++++zhbbmvunigglsvwwvvw++++vw++++++++++++++++++++++++++++++++++++
(PID.TID 0000.0001) //     26 ++++++++++++++uiggjicccdeejiijhf----ah----ahvfflfffiiji.........bcaab+++++++++++++++++++++oojj+wpkjfd...p++++++++++++++++++++++++++++++++++++++++++++++++++++++++++++++m-..kzwliijiiqsvxxuu+++xuu+++++++++++++++++++++++++++++++++++
(PID.TID 0000.0001) //     25 +++++++++++++yonllnf....abb--gidd..-akd..-aktddf++wffhhhj--.....ii...++++++++++++++++++++++ggronnkji-...r+++++++++++++++++++++++++++++++++++++++++++++++s++++++++++++++h...ayxooi.....iiloo+++loo+++++++++++++++++++++++++++++++++++
(PID.TID 0000.0001) //     24 +++++++++++++yokkllh---a...bbgi--...ah-...ahott+++uiggghipd....jwy+++++++++++++++++++++ziis..koorlhh....++++++++++++++++++++++++++++++++++++++++++++++++suw++++++++++++bbjktvuqc........amqy++amqy++++++++++++++++++++++++++++++++++
(PID.TID 0000.0001) //     23 +++++++++++++yslllkff..-ii--aghd....-b....-bcu+++++iffdd++q----ht++..m+++++++++++++++++x...shaaqqqlj....e+++++++++++++++++++++++++++++++++++++++++++++++kuvz++++++++bbv...mmvrm...........ddo+..ddo+++++++++++++g...ew++++++++++++++
(PID.TID 0000.0001) //     22 +++++++++++++ysonlliigghki---ad-.....f.....f+++++++lffk++++ogg--f++jj+++++++++++++++++++....sxeeurrld....jv+++++++++++++++++++++++++++++++++++++++++++++ciklx++++++++++....dvn....+++++a....-d....-ds++++++++++.........y+++++++++++
(PID.TID 0000.0001) //     21 +++++++++++++zojjjlmlhhilfb..cc....g++...g++++++++++aae++++ytllbb++lls++++++++++++++++++......ddtuuzd....dmr++++++++++++++++++++++++++++++++++++++++++++dfffhu+++++kk++z.........+++++++++i...++i....kk++bb++++..........+++++++++++
(PID.TID 0000.0001) //     20 ++++++++++++++geehkjjaaeeicbbgg......-.....-++++++++ccw+++++ttxxz+zxkkl+++++++++++++++uu........l++++..ghhww++++++++++++++++++++++++++++++++++++++++++++iiigggiv+++ww++roox....+++++++++++++a.++++a..q+++...r+g..........+++++++++++
(PID.TID 0000.0001) //     19 x+++++++++++++ziiioonn..--caadf....cem...cem+++++++++jj+++++oo++++jjpaa++++++uu+++++++ccz.......+++++ojjpv++++++++++++++++++++++++++++++++++++++++++++++pmkkkaacvyzxx++..+++++++++++++++++++++++++++++++++...gd.........-+++++++++++
(PID.TID 0000.0001) //     18 ow+++++++++++++++++++u--cdfdb.....-iq+..-iq++++++++++++++++--cj++--d++++++++c..++vuuv+++++-...w+++++++zss+++++++++++++++++++++++++++++++++++++++++++++++ujjlnjffry+++---l++++++++++++++++++++++++++++++++++b..g..........-++++++++++
(PID.TID 0000.0001) //     17 ls++++++++++++++++++++kffhkh-.....ow++..ow+++++++++++++++++p--wwj--dv+uu++++-..fwpokk+++++++vv+++++++ztkk+++++++++++++++++++++++++++++++++++++++++++++++nkjjpqssuz+zx...+++++++++++++++++++++++++++++++++++a..............++++++++++
(PID.TID 0000.0001) //     16 uwyy++++++++++++++++++qffgig......w+++..w+++++++++++++++++++--kzlll..lwqoonn-m..dsy++++++++++++++++++yccnn+++++++++++++++++++++++++++++++++uu+++++++++++jiiilllqxz++u..q+++++++++++++++++++++++++++++++++++c..............++++++++++
(PID.TID 0000.0001) //     15 oorrhht++++++++++++++++jeefe......++++..+++++++++++++++++++++bbw+xxffi+zn....+c..ioz...iz+whh++++++++ucc--++++++++++++++++++++++++++++++++++++++++jjjt++oljiijkluy++s--++++++++++++++++++++++++++++++++++++v..............++++++++++
(PID.TID 0000.0001) //     14 llmmffgh+++++++++++++++n----.....-++++.-++++++++++++++++++++++ooppw++++++++.btd..bjurcc--e+++++++++zzui--k++++++++++++++++++++++++++++++++++++++++++cch+hggddddgilue..h+++++++++++++++++++++++++++++++++++++....i.........++++++++++
(PID.TID 0000.0001) //     13 ijffffhm+++++++++++++++g.........f++++.f++++++++++++++++++++++++++mmssy+++++xt--..iuyywqll+++++pp+yyvtg----c++++++++++++++++++++++++++++++++++++++++++++db......-.....++++++++++++++++++++++++++++++++++++++x...mv.......d++++++++++
(PID.TID 0000.0001) //     12 ihcc--p++++++++++++++++.........-hr+++-hr+++++++++++++++++++++++++++++++xxzzpaabbdgtvwtqnn+mggxxllzugd---g--h+++++h+++++++++++++++++++++++++vv++++++++++-.............++++++++++++++++++++++++++++++++++++++++++++.......+++++++++++
(PID.TID 0000.0001) //     11 e--bccu++++++++++++++++.........-dr+..-dr+..+++++++++++++++++++++++++rrsqqzw+i..bderrtttuvyvvzvrrup--....pxoo+++++o+++++++++++++++++++++++++++++++++++++............++++++++++++++++++++++++++++++++++++++++++++++......w+++++++++++
(PID.TID 0000.0001) //     10 b----dy++++++++++++++++.........nx+...nx+...++++++++++++++++++++++++whhinppv+..-..frrrrttttrrxtniijc....-zz+++++++++++++++++++++++++++++rr++++++++++++++.........-x+++++++++++++++++++++++++++++++++++++++++++++++....-j++++++++++++
(PID.TID 0000.0001) //      9 gc---c+++++++++++++++++i.......-y++...y++...+++++++++++++++++++++zyuqljjklnn+wjjlrrsrrsttsddexq--deiomddd+++++++++++++++++++++++++++++++zz++++++++++++++.......cihh+++++++++++++++++++++++++++++++++++++++++++++++++++++++++++++++++
(PID.TID 0000.0001) //      8 id...o++++++++++++++++++......-sx++..ux++..u+++++++++++++++++++++neehjigggmo+---txtsssutsggrwwtfeefiif-..nnn+++++++++++++++++++++++++++xx+++++++++++++++d.......v+++++++++++++++++++++++++++++++++++++++++++++++++++++++++++++++++++
(PID.TID 0000.0001) //      7 --bo++++++++++++++++++++.......y+++cc++++cc++++++++++++++++++++++mgffhfffgot+....wvttrrsrllwwuthhhhdb-....fjpu++++pu++++++++++++++++++++++++++nhaabbbcc++m..-gg+++++++++++++++++++++++++++++++++++++++++++++++++++++++++++++++++++++
(PID.TID 0000.0001) //      6 ..d+++++++++++++++++++++f-.....++++++++++++++++++++++++++++++++++mhgghfffiuv+-...bbbttvneerwwwuhhhd...-d--aahhv+++hhv+++++++++++++++++++kk++xrjjlmkccly+++++++++++++++++++++++++++++++++++++++++++++++++++++++++++++++++++++++++++++
(PID.TID 0000.0001) //      5 --p+++++++++++++++++++++s.....+++++++++++++++++++++++++++++++++++oiijkmmmqvv-g......wzuliisuvvslkg-...-bhhbb+jjl+++jjl+++++++++++++++++..d++mlhhnrrujj++++++++++++++++++++++++++++++++++++++++++++++++++++++++++++++++++++++++++++++
(PID.TID 0000.0001) //      4 p++++++++++++++++++++++++feee++++++++++++++++++++++++++++++++++++okkntttttnn--c.....x+tmmpnnsp--......--ecce++eel+++eel+++++++++++++++...+tfddnprttwuu++++++++++++++++++++++++++++++++++++++++++++++++++++++++++++++++++++++++++++++
(PID.TID 0000.0001) //      3 +++++++++++++++++++++++++++++++++++++++++++++++++++++++++++++++++++++++zurmm-bi.....wutrrhhgg-..........laad++h..+++h..+++++++++++++++...zwvtpptvvnnpx++++++++++++++++++++++++++++++++++++++++++++++++++++++++++++++++++++++++++++++
(PID.TID 0000.0001) //      2 +++++++++++++++++++++++++++++++++++++++++++++++++++++++++++++++++++++++++qppfhm....atssuslfa-...........j..k++p..+++p..++++++++++++++n..+++xnnouynmmpy+++++++++++++++++++++++++++++++++++++++++++++++++++++++++++++++++++++++++++++z
(PID.TID 0000.0001) //      1 +++++++++++++++++++++++++++++++++++++++++++++++++++++++++++++++++++++++++zyxkth....iootpoggc............c--g++vjjw++vjjw+++++++++++++p..+zzpommoutrqqz+++++++++++++++++++++++++++++++++++++++++++++++++++++++++++++hh+++++ccy++++++u
(PID.TID 0000.0001) //      0 ...+++++++++++++++++++++++++++++++++.....++++++++++++++++++++++++++++++++z..........--bjf...............mxffhjhh.....hhh+++++++++++++onn+xqqlgggiqtu++.....+++++++++++++++++++++++++++++++++.....+++++++++++++++++tcc+++++zljjuxyz..
(PID.TID 0000.0001) //     -1 ...+++++++++++++++++++++++++++++++++.....++++++++++++++++++++++++++++++++y.....-.......g...............buuvlleeh.....jeeh++++++++++++qqz++snkgfffmtz++.....+++++++++++++++++++++++++++++++++.....+++++++++++++++++jj++++++bbcvpppq..
(PID.TID 0000.0001) //     -2 ...+++++++++++++++++++++++++++++++++.....++++++++++++++++++++++++++++++++x.....r.......................oqxzzcch+.....+vccz++++++++++uuw+++viiifffmt+++.....+++++++++++++++++++++++++++++++++.....+++++++++++++++++jj++++++bbkunmmr..
(PID.TID 0000.0001) // =======================================================
(PID.TID 0000.0001) // END OF FIELD                                          =
(PID.TID 0000.0001) // =======================================================
(PID.TID 0000.0001) 
(PID.TID 0000.0001) // =======================================================
(PID.TID 0000.0001) // Field hFacS at iteration          1
(PID.TID 0000.0001) // CMIN =          2.000000000000000E-01
(PID.TID 0000.0001) // CMAX =          1.000000000000000E+00
(PID.TID 0000.0001) // CINT =          2.962962962962963E-02
(PID.TID 0000.0001) // SYMBOLS (CMIN->CMAX): -abcdefghijklmnopqrstuvwxyz+
(PID.TID 0000.0001) //                  0.0: .
(PID.TID 0000.0001) // RANGE I (Lo:Hi:Step):(  -2: 195:   1)
(PID.TID 0000.0001) // RANGE J (Lo:Hi:Step):(  35:  -2:  -1)
(PID.TID 0000.0001) // RANGE K (Lo:Hi:Step):(   1:   1:   1)
(PID.TID 0000.0001) // =======================================================
(PID.TID 0000.0001) K =   1
(PID.TID 0000.0001) //                I=7       I=17      I=27      I=31      I=41      I=51      I=61      I=65      I=75      I=85      I=95      I=99      I=109     I=119     I=129     I=133     I=143     I=153     I=163     I=167     I=177     I=187
(PID.TID 0000.0001) // |--J--|**0123456|890123456|890123456|890123450|234567890|234567890|234567890|234567234|678901234|678901234|678901234|678945678|012345678|012345678|012345678|016789012|456789012|456789012|456789012|890123456|890123456|890123456|89012345
(PID.TID 0000.0001) //     35 ...++++++++++++++vpsib.dd.rxwb...............xtstrshfa-..........jl.d+++h......+++++++++++ugajqljd......g++++++......++++++++++++++++++++++++++++++++......+++++++++++++++++hff-cdco+++++++......++++++++++++++++++++++++++++++++...
(PID.TID 0000.0001) //     34 ...+++++++++++++++wd...bb.lt................a+osupogfa...........cl.g+++p......++++++++++xhgknplid......-++++++......++++++++++++++++++++++++++++++++......+++++++++++++++++hff-c--.+++++++......++++++++++++++++++++++++++++++++...
(PID.TID 0000.0001) //     33 ++++++++++++++++++f...-b.-j-.................t-bsjf..............cp-fh+jhj..++++++++++++zlfgkljiid.......++++++++++++++++++++++++++++++++++++++++++++++++++++++++++++++++++yrmfcb--.o+++++++++++++++++++++++++++++++++++++++++++++++
(PID.TID 0000.0001) //     32 ++++++++++++++++u...cd-a..j-...cimh...imh.......jg...............muyfhvehj..+++++++++++wvkfikjjijg.......++++++++++++++++++++++++++++++++++++++++++++++++++++++++++++++++++yrmfc---.bdp+++++++++++++++++++++++++++++++++++++++++++++
(PID.TID 0000.0001) //     31 ++++++++++++++++u..m+ttai.w-.-g-bht-..bht-......................bqu+vlcehw+++++++++++++uuifimjkilgb.....m++++++++++++++++++++++++++++++++++++++++++++++++++++++++++++++++wswoljh--cd-.-+++++++++++++++++++++++++++++++++++++++++++++
(PID.TID 0000.0001) //     30 +++++++++++++++++c--.bxp++++++---fkr..-fkr......................mqx+z+ch++++++++++++++sskcdipunjohd-...d++++++++++++++++++++++++++++++++++++++++++++++++++++++++++++++++xoluoliiebgi-.-p++++++++++++++++++++++++++++++++++++++++++++
(PID.TID 0000.0001) //     29 ++++++++++++++++...-.bhlwrttuh.--afkx.-afkx.....................mhio++z+++++++++++++++sqicdiqxsooifc...d++++++++++++++++++++++++++++++++++++++++++++++++++++++++++++++++wlluuliiedgigfhpt+++++t+++++++++++++++++++++++++++++++++++++
(PID.TID 0000.0001) //     28 +++++++++++++++l...-iiecjrttph....cdli..cdli.......k............kh-o+++++++++++++++++++qigfjt+zuoigd...f+++++++++++++++++++++++++++++++++++++++++++++++++++++++++++++++zhbmvxlkiglploqqqt+++++t+++++++++++++++++++++++++++++++++++++
(PID.TID 0000.0001) //     27 ++++++++++++++ui.-ffccdcemjijhg...-ahw..-ahwc.....eik..........acf-b++++++++++++++++++++tijnj++wpihdb..o+++++++++++++++++++++++++++++++++++++++++++++++++++++++++++++++m-.kvyuligliqsvwvwu++++wu++++++++++++++++++++++++++++++++++++
(PID.TID 0000.0001) //     26 +++++++++++++yoigjlf...adbh-gohd-.-aht-.-ahtvdflffsfhhh........bcf..++++++++++++++++++++++ogjxonpkjf-..p+++++++++++++++++++++++++++++++++++++++++++++++++++++++++++++++h..ayywlii....jilvo++++vo++++++++++++++++++++++++++++++++++++
(PID.TID 0000.0001) //     25 +++++++++++++yokllof...a..f-gmi-+..aho+..ahotdf+++ufgghiw--....jiq..+++++++++++++++++++zis+.kxonrkhi...r++++++++++++++++++++++++++++++++++++++++++++++++uw+++++++++++++b..avxuoc.......amoy+++moy+++++++++++++++++++++++++++++++++++
(PID.TID 0000.0001) //     24 +++++++++++++yokllkf-.-a..-aghi-...-bc...-bctt++++uifgdi+pd...hty++.m++++++++++++++++++x..v.haoqulhj...e++++++++++++++++++++++++++++++++++++++++++++++++uvz+++++++++b+v..kmvwrm..........fdo++.fdo++++++++++++++g..ew+++++++++++++++
(PID.TID 0000.0001) //     23 +++++++++++++yslllkfh.-iii--adi-.j..bc.j..bcu++++++ifkd+++q-a--f+++.m++++++++++++++++++x...shaeqyqlj....jv++++++++++++++++++++++++++++++++++++++++++++++iklx++++++++b+v...dvwn.....s.......-ds...-ds+++++++++++........y++++++++++++
(PID.TID 0000.0001) //     22 +++++++++++++yojjlmijghkmf-.ach.....f+....f++++++++lae+++++ogj-b+++js+++++++++++++++++++.....jdtxrsld...dmr+++++++++++++++++++++++++++++++++++++++++++++fgfhu++++++k+++.....a....++++++a............qk+++b+++++.........++++++++++++
(PID.TID 0000.0001) //     21 +++++++++++++zgehkmjjafejfb.ccg.....-+....-+++++++++ae+++++ytlqb++zlkl++++++++++++++++u+.......lxuz+d...dmr+++++++++++++++++++++++++++++++++++++++++++++fgfggiv++++k+++r........++++++++++i...++i...qk+++..r++g.........++++++++++++
(PID.TID 0000.0001) //     20 ++++++++++++++gehkojja.--gcadgf.....-+....-+++++++++cj++++++oxxz++jxka+++++++u++++++++c+.......l+++++.gjhxw+++++++++++++++++++++++++++++++++++++++++++++iikggacvyz+w+++.o+x...++++++++++++++a.++++a.q++++...g+d.........++++++++++++
(PID.TID 0000.0001) //     19 w+++++++++++++ziiooono.--gcab.....cem+..cem++++++++++j+++++-cj+++-d+pa++++++c.+++vuv++c+z....-.++++++ojpv+++++++++++++++++++++++++++++++++++++++++++++++pjkkkacryz+x+--.++++++++++++++++++++++++++++++++++...vd.........-+++++++++++
(PID.TID 0000.0001) //     18 s++++++++++++++++++++u-cdgfd-....-iq++.-iq+++++++++++++++++--j+wj-dv++u+++++-.fwxpok++++++-..w+++++++ztk++++++++++++++++++++++++++++++++++++++++++++++++njjnnjfry++zx..l+++++++++++++++++++++++++++++++++++a.............+++++++++++
(PID.TID 0000.0001) //     17 szy+++++++++++++++++++kfgkig.....ow+++.ow++++++++++++++++++p-kzwj-d.l+uqopn+-..dspok++++++++v++++++++yckn++++++++++++++++++++++++++++++++++u++++++++++++jiilolquz++zu..++++++++++++++++++++++++++++++++++++a.............+++++++++++
(PID.TID 0000.0001) //     16 osruht++++++++++++++++qfefge.....w++++.w++++++++++++++++++++-bw+ll+.i+wqn...+m..iozz..iz++wh+++++++++ucf-++++++++++++++++++++++++++++++++++u++++++jjt+++jiiijkluy+++s.q++++++++++++++++++++++++++++++++++++c.............+++++++++++
(PID.TID 0000.0001) //     15 lomofgh++++++++++++++++j----.....+++++.++++++++++++++++++++++boppw+fi++zn...+tc.bjyu..c-e+wh+++++++z+uc--+++++++++++++++++++++++++++++++++++++++++jjch++hggdddgiluve.-+++++++++++++++++++++++++++++++++++++v.............+++++++++++
(PID.TID 0000.0001) //     14 jnfgfgh++++++++++++++++g........-+++++-+++++++++++++++++++++++oppwmysy+++++.+t-..iuurcc-e++++++p++yyvtg-i-c+++++++++++++++++++++++++++++++++++++++++ch++db.....-a....h++++++++++++++++++++++++++++++++++++++...iz........+++++++++++
(PID.TID 0000.0001) //     13 jhcd-hm++++++++++++++++.........fr++++fr++++++++++++++++++++++++++mysy++xz+zpa--.gtvwwtql++mgx+pl+yugd--g--h++++++++++++++++++++++++++++++++v+++++++++++-............+++++++++++++++++++++++++++++++++++++++x..m+v......d+++++++++++
(PID.TID 0000.0001) //     12 i-bd-p+++++++++++++++++........-dr++.+dr++.++++++++++++++++++++++++++rvsqz+wpa.bdesrtvtqnyzmgxvrlup-a...gs-h++++++++++++++++++++++++++++++++v+++++++++++.............+++++++++++++++++++++++++++++++++++++++++++++......++++++++++++
(PID.TID 0000.0001) //     11 b-b-cu+++++++++++++++++........-dr+..+dr+..+++++++++++++++++++++++++whinqpxv+..b.errrrttutwrxxtnijp-....pzxo++++++++++++++++++++++++++++r+++++++++++++++...........+++++++++++++++++++++++++++++++++++++++++++++++.....w++++++++++++
(PID.TID 0000.0001) //     10 b---cy+++++++++++++++++........nx++..+x++..++++++++++++++++++++++zyuqhiklont+.-g.frsrrttusdexxq-deic...-+z++++++++++++++++++++++++++++++r+++++++++++++++........-h++++++++++++++++++++++++++++++++++++++++++++++++...-j+++++++++++++
(PID.TID 0000.0001) //      9 hc..c++++++++++++++++++i......-x+++..++++..++++++++++++++++++++++nehkjiggmnp+--lvrtsrsutsgdewwq-deimif-.nnn++++++++++++++++++++++++++++xz+++++++++++++++.......ijh++++++++++++++++++++++++++++++++++++++++++++++++++++++++++++++++++
(PID.TID 0000.0001) //      8 -b..o+++++++++++++++++++......sx+++.u++++.u++++++++++++++++++++++mefihffgmop+...+wtssrstrgrwwutfefhdb-...fjpu+++++u++++++++++++++++++++x++++++nhadbbzc++d......v++++++++++++++++++++++++++++++++++++++++++++++++++++++++++++++++++++
(PID.TID 0000.0001) //      7 .bo+++++++++++++++++++++......y++++c+++++c+++++++++++++++++++++++mgfihffgout+...+bbttrsnelwwwuthhhd..-.-.faphv++++hv++++++++++++++++++++k+++xrjhadbblc+++m.-gg++++++++++++++++++++++++++++++++++++++++++++++++++++++++++++++++++++++
(PID.TID 0000.0001) //      6 .d++++++++++++++++++++++f.....+++++++++++++++++++++++++++++++++++mhgihffiuyvg-...-.utwuleruvwvshig-..-bi-ia+hjl+++hjl++++++++++++++++++.d+++mlhlrmkcjy++++++++++++++++++++++++++++++++++++++++++++++++++++++++++++++++++++++++++++++
(PID.TID 0000.0001) //      5 -p++++++++++++++++++++++s....++++++++++++++++++++++++++++++++++++oijknmmqtnv-c.....wzztliqnsup--..-..--jecb++jel+++jel++++++++++++++++..d+tfdlhntruvj+++++++++++++++++++++++++++++++++++++++++++++++++++++++++++++++++++++++++++++++
(PID.TID 0000.0001) //      4 +++++++++++++++++++++++++fee+++++++++++++++++++++++++++++++++++++okntutttrmn-cf....xwutmphhgj-.......-.nead+++e.++++e.++++++++++++++++..+ztfdnprttnpu+++++++++++++++++++++++++++++++++++++++++++++++++++++++++++++++++++++++++++++++
(PID.TID 0000.0001) //      3 +++++++++++++++++++++++++++++++++++++++++++++++++++++++++++++++++++++++zuqmnbji....xtstrshfa-..........jl.d+++h.++++h.+++++++++++++++n..+zwvnotvvnmpx++++++++++++++++++++++++++++++++++++++++++++++++++++++++++++++++++++++++++++++z
(PID.TID 0000.0001) //      2 +++++++++++++++++++++++++++++++++++++++++++++++++++++++++++++++++++++++++qpphmh...a+osupogfa...........cl.g+++p.w+++p.w++++++++++++++n.++zzpnmouvnmpy++++++++++++++++++++++++++++++++++++++++++++++++++++++++++++++h++++++cy+++++++u
(PID.TID 0000.0001) //      1 +++++++++++++++++++++++++++++++++++++++++++++++++++++++++++++++++++++++++zyxr-.....t-bsjf..............cp-fh+jhhh++jhhh++++++++++++++o.++xqplggiqtrqz+++++++++++++++++++++++++++++++++++++++++++++++++++++++++++++tc++++++cljuxyzzqr
(PID.TID 0000.0001) //      0 ...++++++++++++++++++++++++++++++++......++++++++++++++++++++++++++++++++.............jg...............muyfhveh......heh+++++++++++++on++xqnkgffmtu++......++++++++++++++++++++++++++++++++......+++++++++++++++++jc++++++bcjuppq...
(PID.TID 0000.0001) //     -1 ...++++++++++++++++++++++++++++++++......++++++++++++++++++++++++++++++++......-......................bqu+vlceh......jecz+++++++++++uqz+++sijgffmtz++......++++++++++++++++++++++++++++++++......+++++++++++++++++j+++++++bcuwnmq...
(PID.TID 0000.0001) //     -2 ...++++++++++++++++++++++++++++++++......++++++++++++++++++++++++++++++++......r......................mqx+z+ch+......hlcz++++++++la+uw++y+rhjiffmt+++......++++++++++++++++++++++++++++++++......+++++++++++++++++j+++++++bkrtnmr...
(PID.TID 0000.0001) // =======================================================
(PID.TID 0000.0001) // END OF FIELD                                          =
(PID.TID 0000.0001) // =======================================================
(PID.TID 0000.0001) 
(PID.TID 0000.0001) %MON fCori_max                    =   1.4535016908525E-04
(PID.TID 0000.0001) %MON fCori_min                    =  -1.4535016908525E-04
(PID.TID 0000.0001) %MON fCori_mean                   =   7.1247823427901E-22
(PID.TID 0000.0001) %MON fCori_sd                     =   8.3972192788621E-05
(PID.TID 0000.0001) %MON fCoriG_max                   =   1.4544410433286E-04
(PID.TID 0000.0001) %MON fCoriG_min                   =  -1.4544410433286E-04
(PID.TID 0000.0001) %MON fCoriG_mean                  =   4.3252746242773E-22
(PID.TID 0000.0001) %MON fCoriG_sd                    =   8.4860812167727E-05
(PID.TID 0000.0001)  PACKAGES_BOOT: opening data.pkg
(PID.TID 0000.0001)  OPEN_COPY_DATA_FILE: opening file data.pkg
(PID.TID 0000.0001) // =======================================================
(PID.TID 0000.0001) // Parameter file "data.pkg"
(PID.TID 0000.0001) // =======================================================
(PID.TID 0000.0001) ># Packages
(PID.TID 0000.0001) > &PACKAGES
(PID.TID 0000.0001) > useAIM=.TRUE.
(PID.TID 0000.0001) > useSHAP_FILT=.TRUE.
(PID.TID 0000.0001) > &
(PID.TID 0000.0001) 
(PID.TID 0000.0001)  PACKAGES_BOOT: finished reading data.pkg
(PID.TID 0000.0001)  SHAP_FILT_READPARMS: opening data.shap
(PID.TID 0000.0001)  OPEN_COPY_DATA_FILE: opening file data.shap
(PID.TID 0000.0001) // =======================================================
(PID.TID 0000.0001) // Parameter file "data.shap"
(PID.TID 0000.0001) // =======================================================
(PID.TID 0000.0001) ># Shapiro Filter parameters
(PID.TID 0000.0001) > &SHAP_PARM01
(PID.TID 0000.0001) > shap_filt_uvStar=.FALSE.,
(PID.TID 0000.0001) > shap_filt_TrStagg=.TRUE.,
(PID.TID 0000.0001) > Shap_funct=2,
(PID.TID 0000.0001) > nShapT=0,
(PID.TID 0000.0001) > nShapUV=4,
(PID.TID 0000.0001) > nShapTrPhys=4,
(PID.TID 0000.0001) > nShapUVPhys=4,
(PID.TID 0000.0001) >#Shap_TrLength=115000.,
(PID.TID 0000.0001) >#Shap_uvLength=140000.,
(PID.TID 0000.0001) >#Shap_Trtau=3600.,
(PID.TID 0000.0001) >#Shap_uvtau=3600.,
(PID.TID 0000.0001) > &
(PID.TID 0000.0001) 
(PID.TID 0000.0001)  SHAP_FILT_READPARMS: finished reading data.shap
 Shap_funct, nShap_Tr,UV _Phys=           2           0           4           4
            4
 Shap_Trtau,Shap_uvtau=   450.0000000000000        450.0000000000000     
(PID.TID 0000.0001) // CG2D normalisation factor =          0.9911960384346747000000000E-05
(PID.TID 0000.0001) 
 ini_cg2d: sumArea,cg2dTolerance =  5.09904363781724E+14  1.12314485635777E-10
(PID.TID 0000.0001) // =======================================================
(PID.TID 0000.0001) // Model configuration
(PID.TID 0000.0001) // =======================================================
(PID.TID 0000.0001) //
(PID.TID 0000.0001) // "Physical" paramters ( PARM01 in namelist )
(PID.TID 0000.0001) //
(PID.TID 0000.0001) tRef =   /* Reference temperature profile ( oC or oK ) */
(PID.TID 0000.0001)                 2.810890000000000E+02,      /* K =  1 */
(PID.TID 0000.0001)                 2.893210000000000E+02,      /* K =  2 */
(PID.TID 0000.0001)                 3.071910000000000E+02,      /* K =  3 */
(PID.TID 0000.0001)                 3.313770000000000E+02,      /* K =  4 */
(PID.TID 0000.0001)                 4.324130000000000E+02       /* K =  5 */
(PID.TID 0000.0001)     ;
(PID.TID 0000.0001) sRef =   /* Reference salinity profile ( ppt ) */
(PID.TID 0000.0001)     5 @  0.000000000000000E+00              /* K =  1:  5 */
(PID.TID 0000.0001)     ;
(PID.TID 0000.0001) viscAh =   /* Lateral eddy viscosity ( m^2/s ) */
(PID.TID 0000.0001)                 0.000000000000000E+00
(PID.TID 0000.0001)     ;
(PID.TID 0000.0001) viscAh =   /* Lateral biharmonic viscosity ( m^4/s ) */
(PID.TID 0000.0001)                 0.000000000000000E+00
(PID.TID 0000.0001)     ;
(PID.TID 0000.0001) no_slip_sides =  /* Viscous BCs: No-slip sides */
(PID.TID 0000.0001)                   F
(PID.TID 0000.0001)     ;
(PID.TID 0000.0001) viscAr =   /* Vertical eddy viscosity ( units of r^2/s ) */
(PID.TID 0000.0001)                 0.000000000000000E+00
(PID.TID 0000.0001)     ;
(PID.TID 0000.0001) diffKhT =   /* Laplacian diffusion of heat laterally ( m^2/s ) */
(PID.TID 0000.0001)                 0.000000000000000E+00
(PID.TID 0000.0001)     ;
(PID.TID 0000.0001) diffK4T =   /* Bihaarmonic diffusion of heat laterally ( m^4/s ) */
(PID.TID 0000.0001)                 0.000000000000000E+00
(PID.TID 0000.0001)     ;
(PID.TID 0000.0001) diffKzT =   /* Laplacian diffusion of heat vertically ( m^2/s ) */
(PID.TID 0000.0001)                 1.234567000000000E+05
(PID.TID 0000.0001)     ;
(PID.TID 0000.0001) diffKrT =   /* Laplacian diffusion of heat vertically ( m^2/s ) */
(PID.TID 0000.0001)                 0.000000000000000E+00
(PID.TID 0000.0001)     ;
(PID.TID 0000.0001) diffKhS =   /* Laplacian diffusion of salt laterally ( m^2/s ) */
(PID.TID 0000.0001)                 0.000000000000000E+00
(PID.TID 0000.0001)     ;
(PID.TID 0000.0001) diffK4S =   /* Bihaarmonic diffusion of salt laterally ( m^4/s ) */
(PID.TID 0000.0001)                 0.000000000000000E+00
(PID.TID 0000.0001)     ;
(PID.TID 0000.0001) diffKzS =   /* Laplacian diffusion of salt vertically ( m^2/s ) */
(PID.TID 0000.0001)                 1.234567000000000E+05
(PID.TID 0000.0001)     ;
(PID.TID 0000.0001) diffKrS =   /* Laplacian diffusion of salt vertically ( m^2/s ) */
(PID.TID 0000.0001)                 0.000000000000000E+00
(PID.TID 0000.0001)     ;
(PID.TID 0000.0001) tAlpha =   /* Linear EOS thermal expansion coefficient ( 1/degree ) */
(PID.TID 0000.0001)                 2.000000000000000E-04
(PID.TID 0000.0001)     ;
(PID.TID 0000.0001) sBeta =   /* Linear EOS haline contraction coefficient ( 1/ppt ) */
(PID.TID 0000.0001)                 7.400000000000001E-04
(PID.TID 0000.0001)     ;
(PID.TID 0000.0001) rhonil =   /* Reference density ( kg/m^3 ) */
(PID.TID 0000.0001)                 1.000000000000000E+00
(PID.TID 0000.0001)     ;
(PID.TID 0000.0001) rhoConst =   /* Reference density ( kg/m^3 ) */
(PID.TID 0000.0001)                 1.000000000000000E+00
(PID.TID 0000.0001)     ;
(PID.TID 0000.0001) gravity =   /* Gravitational acceleration ( m/s^2 ) */
(PID.TID 0000.0001)                 9.810000000000001E+00
(PID.TID 0000.0001)     ;
(PID.TID 0000.0001) gBaro =   /* Barotropic gravity ( m/s^2 ) */
(PID.TID 0000.0001)                 9.810000000000001E+00
(PID.TID 0000.0001)     ;
(PID.TID 0000.0001) f0 =   /* Reference coriolis parameter ( 1/s ) */
(PID.TID 0000.0001)                 1.000000000000000E-04
(PID.TID 0000.0001)     ;
(PID.TID 0000.0001) beta =   /* Beta ( 1/(m.s) ) */
(PID.TID 0000.0001)                 9.999999999999998E-12
(PID.TID 0000.0001)     ;
(PID.TID 0000.0001) freeSurfFac =   /* Implicit free surface factor */
(PID.TID 0000.0001)                 1.000000000000000E+00
(PID.TID 0000.0001)     ;
(PID.TID 0000.0001) implicitFreeSurface =   /* Implicit free surface on/off flag */
(PID.TID 0000.0001)                   T
(PID.TID 0000.0001)     ;
(PID.TID 0000.0001) rigidLid =   /* Rigid lid on/off flag */
(PID.TID 0000.0001)                   F
(PID.TID 0000.0001)     ;
(PID.TID 0000.0001) implicSurfPress =   /* Surface Pressure implicit factor (0-1)*/
(PID.TID 0000.0001)                 1.000000000000000E+00
(PID.TID 0000.0001)     ;
(PID.TID 0000.0001) implicDiv2Dflow =   /* Barot. Flow Div. implicit factor (0-1)*/
(PID.TID 0000.0001)                 1.000000000000000E+00
(PID.TID 0000.0001)     ;
(PID.TID 0000.0001) staggerTimeStep =   /* Stagger time stepping on/off flag */
(PID.TID 0000.0001)                   T
(PID.TID 0000.0001)     ;
(PID.TID 0000.0001) momStepping =  /* Momentum equation on/off flag */
(PID.TID 0000.0001)                   T
(PID.TID 0000.0001)     ;
(PID.TID 0000.0001) momAdvection =  /* Momentum advection on/off flag */
(PID.TID 0000.0001)                   T
(PID.TID 0000.0001)     ;
(PID.TID 0000.0001) momViscosity =  /* Momentum viscosity on/off flag */
(PID.TID 0000.0001)                   T
(PID.TID 0000.0001)     ;
(PID.TID 0000.0001) useCoriolis =  /* Coriolis on/off flag */
(PID.TID 0000.0001)                   T
(PID.TID 0000.0001)     ;
(PID.TID 0000.0001) momForcing =  /* Momentum forcing on/off flag */
(PID.TID 0000.0001)                   T
(PID.TID 0000.0001)     ;
(PID.TID 0000.0001) momPressureForcing =  /* Momentum pressure term on/off flag */
(PID.TID 0000.0001)                   T
(PID.TID 0000.0001)     ;
(PID.TID 0000.0001) tempStepping =  /* Temperature equation on/off flag */
(PID.TID 0000.0001)                   T
(PID.TID 0000.0001)     ;
(PID.TID 0000.0001) nonHydrostatic =  /* Non-Hydrostatic on/off flag */
(PID.TID 0000.0001)                   F
(PID.TID 0000.0001)     ;
(PID.TID 0000.0001) //
(PID.TID 0000.0001) // Elliptic solver(s) paramters ( PARM02 in namelist )
(PID.TID 0000.0001) //
(PID.TID 0000.0001) cg2dMaxIters =   /* Upper limit on 2d con. grad iterations  */
(PID.TID 0000.0001)                     200
(PID.TID 0000.0001)     ;
(PID.TID 0000.0001) cg2dChkResFreq =   /* 2d con. grad convergence test frequency */
(PID.TID 0000.0001)                       1
(PID.TID 0000.0001)     ;
(PID.TID 0000.0001) cg2dTargetResidual =   /* 2d con. grad target residual  */
(PID.TID 0000.0001)                 1.000000000000000E-07
(PID.TID 0000.0001)     ;
(PID.TID 0000.0001) //
(PID.TID 0000.0001) // Time stepping paramters ( PARM03 in namelist )
(PID.TID 0000.0001) //
(PID.TID 0000.0001) nIter0 =   /* Base timestep number  */
(PID.TID 0000.0001)                   17280
(PID.TID 0000.0001)     ;
(PID.TID 0000.0001) nTimeSteps =   /* Number of timesteps */
(PID.TID 0000.0001)                      10
(PID.TID 0000.0001)     ;
(PID.TID 0000.0001) deltatTmom =   /* Momentum equation timestep ( s ) */
(PID.TID 0000.0001)                 4.500000000000000E+02
(PID.TID 0000.0001)     ;
(PID.TID 0000.0001) deltatTtracer =   /* Tracer equation timestep ( s ) */
(PID.TID 0000.0001)                 4.500000000000000E+02
(PID.TID 0000.0001)     ;
(PID.TID 0000.0001) deltatTClock  =   /* Model clock timestep ( s ) */
(PID.TID 0000.0001)                 4.500000000000000E+02
(PID.TID 0000.0001)     ;
(PID.TID 0000.0001) cAdjFreq =   /* Convective adjustment interval ( s ) */
(PID.TID 0000.0001)                 0.000000000000000E+00
(PID.TID 0000.0001)     ;
(PID.TID 0000.0001) abeps =   /* Adams-Bashforth stabilizing weight */
(PID.TID 0000.0001)                 1.000000000000000E-01
(PID.TID 0000.0001)     ;
(PID.TID 0000.0001) tauCD =   /* CD coupling time-scale ( s ) */
(PID.TID 0000.0001)                 4.500000000000000E+02
(PID.TID 0000.0001)     ;
(PID.TID 0000.0001) rCD =   /* Normalised CD coupling parameter */
(PID.TID 0000.0001)                 0.000000000000000E+00
(PID.TID 0000.0001)     ;
(PID.TID 0000.0001) startTime =   /* Run start time ( s ). */
(PID.TID 0000.0001)                 7.776000000000000E+06
(PID.TID 0000.0001)     ;
(PID.TID 0000.0001) endTime =   /* Integration ending time ( s ). */
(PID.TID 0000.0001)                 7.780500000000000E+06
(PID.TID 0000.0001)     ;
(PID.TID 0000.0001) pChkPtFreq =   /* Permanent restart/checkpoint file interval ( s ). */
(PID.TID 0000.0001)                 2.592000000000000E+06
(PID.TID 0000.0001)     ;
(PID.TID 0000.0001) chkPtFreq =   /* Rolling restart/checkpoint file interval ( s ). */
(PID.TID 0000.0001)                 0.000000000000000E+00
(PID.TID 0000.0001)     ;
(PID.TID 0000.0001) dumpFreq =   /* Model state write out interval ( s ). */
(PID.TID 0000.0001)                 2.592000000000000E+06
(PID.TID 0000.0001)     ;
(PID.TID 0000.0001) //
(PID.TID 0000.0001) // Gridding paramters ( PARM04 in namelist )
(PID.TID 0000.0001) //
(PID.TID 0000.0001) usingCartesianGrid =   /* Cartesian coordinates flag ( True / False ) */
(PID.TID 0000.0001)                   F
(PID.TID 0000.0001)     ;
(PID.TID 0000.0001) usingSphericalPolarGrid =   /* Spherical coordinates flag ( True / False ) */
(PID.TID 0000.0001)                   F
(PID.TID 0000.0001)     ;
(PID.TID 0000.0001) groundAtK1 =   /* Lower Boundary (ground) at the surface(k=1) ( T / F ) */
(PID.TID 0000.0001)                   T
(PID.TID 0000.0001)     ;
(PID.TID 0000.0001) Ro_SeaLevel =   /* r(1) ( units of r ) */
(PID.TID 0000.0001)                 1.000000000000000E+05
(PID.TID 0000.0001)     ;
(PID.TID 0000.0001) rkFac =   /* minus Vertical index orientation  */
(PID.TID 0000.0001)                 1.000000000000000E+00
(PID.TID 0000.0001)     ;
(PID.TID 0000.0001) horiVertRatio =   /* Ratio on units : Horiz - Vertical */
(PID.TID 0000.0001)                 9.810000000000001E+00
(PID.TID 0000.0001)     ;
(PID.TID 0000.0001) delZ =   /* W spacing ( m ) */
(PID.TID 0000.0001)     5 @  1.234567000000000E+05              /* K =  1:  5 */
(PID.TID 0000.0001)     ;
(PID.TID 0000.0001) delP =   /* W spacing ( Pa ) */
(PID.TID 0000.0001)     5 @  1.234567000000000E+05              /* K =  1:  5 */
(PID.TID 0000.0001)     ;
(PID.TID 0000.0001) delR =   /* W spacing ( units of r ) */
(PID.TID 0000.0001)                 1.000000000000000E+04,      /* K =  1 */
(PID.TID 0000.0001)                 2.500000000000000E+04,      /* K =  2 */
(PID.TID 0000.0001)                 3.000000000000000E+04,      /* K =  3 */
(PID.TID 0000.0001)                 2.000000000000000E+04,      /* K =  4 */
(PID.TID 0000.0001)                 1.500000000000000E+04       /* K =  5 */
(PID.TID 0000.0001)     ;
(PID.TID 0000.0001) delX =   /* U spacing ( m - cartesian, degrees - spherical ) */
(PID.TID 0000.0001)   192 @  1.234567000000000E+05              /* I =  1:192 */
(PID.TID 0000.0001)     ;
(PID.TID 0000.0001) delY =   /* V spacing ( m - cartesian, degrees - spherical ) */
(PID.TID 0000.0001)    32 @  1.234567000000000E+05              /* J =  1: 32 */
(PID.TID 0000.0001)     ;
(PID.TID 0000.0001) phiMin =    /* South edge (ignored - cartesian, degrees - spherical ) */
(PID.TID 0000.0001)                 0.000000000000000E+00
(PID.TID 0000.0001)     ;
(PID.TID 0000.0001) thetaMin =    /* West edge ( ignored - cartesian, degrees - spherical ) */
(PID.TID 0000.0001)                 0.000000000000000E+00
(PID.TID 0000.0001)     ;
(PID.TID 0000.0001) rSphere =    /* Radius ( ignored - cartesian, m - spherical ) */
(PID.TID 0000.0001)                 6.370000000000000E+06
(PID.TID 0000.0001)     ;
(PID.TID 0000.0001) xcoord =   /* P-point X coord ( m - cartesian, degrees - spherical ) */
(PID.TID 0000.0001)                -4.439521994760536E+01,      /* I =  1 */
(PID.TID 0000.0001)                -4.295641272275883E+01,      /* I =  2 */
(PID.TID 0000.0001)                -4.122055553388957E+01,      /* I =  3 */
(PID.TID 0000.0001)                -3.923446288487304E+01,      /* I =  4 */
(PID.TID 0000.0001)                -3.702585158682200E+01,      /* I =  5 */
(PID.TID 0000.0001)                -3.461179367094151E+01,      /* I =  6 */
(PID.TID 0000.0001)                -3.200434569041793E+01,      /* I =  7 */
(PID.TID 0000.0001)                -2.921355965632675E+01,      /* I =  8 */
(PID.TID 0000.0001)                -2.624932223028290E+01,      /* I =  9 */
(PID.TID 0000.0001)                -2.312261250426344E+01,      /* I = 10 */
(PID.TID 0000.0001)                -1.984640717127058E+01,      /* I = 11 */
(PID.TID 0000.0001)                -1.643630800555134E+01,      /* I = 12 */
(PID.TID 0000.0001)                -1.291089806302069E+01,      /* I = 13 */
(PID.TID 0000.0001)                -9.291807802719402E+00,      /* I = 14 */
(PID.TID 0000.0001)                -5.603475335822332E+00,      /* I = 15 */
(PID.TID 0000.0001)                -1.872608513033445E+00,      /* I = 16 */
(PID.TID 0000.0001)                 1.872608513033445E+00,      /* I = 17 */
(PID.TID 0000.0001)                 5.603475335822332E+00,      /* I = 18 */
(PID.TID 0000.0001)                 9.291807802719402E+00,      /* I = 19 */
(PID.TID 0000.0001)                 1.291089806302069E+01,      /* I = 20 */
(PID.TID 0000.0001)                 1.643630800555134E+01,      /* I = 21 */
(PID.TID 0000.0001)                 1.984640717127058E+01,      /* I = 22 */
(PID.TID 0000.0001)                 2.312261250426344E+01,      /* I = 23 */
(PID.TID 0000.0001)                 2.624932223028290E+01,      /* I = 24 */
(PID.TID 0000.0001)                 2.921355965632675E+01,      /* I = 25 */
(PID.TID 0000.0001)                 3.200434569041793E+01,      /* I = 26 */
(PID.TID 0000.0001)                 3.461179367094151E+01,      /* I = 27 */
(PID.TID 0000.0001)                 3.702585158682200E+01,      /* I = 28 */
(PID.TID 0000.0001)                 3.923446288487304E+01,      /* I = 29 */
(PID.TID 0000.0001)                 4.122055553388957E+01,      /* I = 30 */
(PID.TID 0000.0001)                 4.295641272275883E+01,      /* I = 31 */
(PID.TID 0000.0001)                 4.439521994760536E+01,      /* I = 32 */
(PID.TID 0000.0001)                 4.560478005239465E+01,      /* I = 33 */
(PID.TID 0000.0001)                 4.704358727724117E+01,      /* I = 34 */
(PID.TID 0000.0001)                 4.877944446611043E+01,      /* I = 35 */
(PID.TID 0000.0001)                 5.076553711512697E+01,      /* I = 36 */
(PID.TID 0000.0001)                 5.297414841317801E+01,      /* I = 37 */
(PID.TID 0000.0001)                 5.538820632905850E+01,      /* I = 38 */
(PID.TID 0000.0001)                 5.799565430958209E+01,      /* I = 39 */
(PID.TID 0000.0001)                 6.078644034367325E+01,      /* I = 40 */
(PID.TID 0000.0001)                 6.375067776971711E+01,      /* I = 41 */
(PID.TID 0000.0001)                 6.687738749573657E+01,      /* I = 42 */
(PID.TID 0000.0001)                 7.015359282872943E+01,      /* I = 43 */
(PID.TID 0000.0001)                 7.356369199444866E+01,      /* I = 44 */
(PID.TID 0000.0001)                 7.708910193697932E+01,      /* I = 45 */
(PID.TID 0000.0001)                 8.070819219728060E+01,      /* I = 46 */
(PID.TID 0000.0001)                 8.439652466417766E+01,      /* I = 47 */
(PID.TID 0000.0001)                 8.812739148696656E+01,      /* I = 48 */
(PID.TID 0000.0001)                 9.187260851303344E+01,      /* I = 49 */
(PID.TID 0000.0001)                 9.560347533582234E+01,      /* I = 50 */
(PID.TID 0000.0001)                 9.929180780271940E+01,      /* I = 51 */
(PID.TID 0000.0001)                 1.029108980630207E+02,      /* I = 52 */
(PID.TID 0000.0001)                 1.064363080055513E+02,      /* I = 53 */
(PID.TID 0000.0001)                 1.098464071712706E+02,      /* I = 54 */
(PID.TID 0000.0001)                 1.131226125042634E+02,      /* I = 55 */
(PID.TID 0000.0001)                 1.162493222302829E+02,      /* I = 56 */
(PID.TID 0000.0001)                 1.192135596563268E+02,      /* I = 57 */
(PID.TID 0000.0001)                 1.220043456904179E+02,      /* I = 58 */
(PID.TID 0000.0001)                 1.246117936709415E+02,      /* I = 59 */
(PID.TID 0000.0001)                 1.270258515868220E+02,      /* I = 60 */
(PID.TID 0000.0001)                 1.292344628848730E+02,      /* I = 61 */
(PID.TID 0000.0001)                 1.312205555338896E+02,      /* I = 62 */
(PID.TID 0000.0001)                 1.329564127227588E+02,      /* I = 63 */
(PID.TID 0000.0001)                 1.343952199476053E+02,      /* I = 64 */
(PID.TID 0000.0001)                 4.500000000000000E+01,      /* I = 65 */
(PID.TID 0000.0001)                 4.620805468796297E+01,      /* I = 66 */
(PID.TID 0000.0001)                 4.781369642513039E+01,      /* I = 67 */
(PID.TID 0000.0001)                 4.971767671143929E+01,      /* I = 68 */
(PID.TID 0000.0001)                 5.187738319787235E+01,      /* I = 69 */
(PID.TID 0000.0001)                 5.427004371478710E+01,      /* I = 70 */
(PID.TID 0000.0001)                 5.688128325334060E+01,      /* I = 71 */
(PID.TID 0000.0001)                 5.970018167786760E+01,      /* I = 72 */
(PID.TID 0000.0001)                 6.271654991792347E+01,      /* I = 73 */
(PID.TID 0000.0001)                 6.591914604853015E+01,      /* I = 74 */
(PID.TID 0000.0001)                 6.929439270484149E+01,      /* I = 75 */
(PID.TID 0000.0001)                 7.282545807616151E+01,      /* I = 76 */
(PID.TID 0000.0001)                 7.649168830618933E+01,      /* I = 77 */
(PID.TID 0000.0001)                 8.026842803787176E+01,      /* I = 78 */
(PID.TID 0000.0001)                 8.412726743124185E+01,      /* I = 79 */
(PID.TID 0000.0001)                 8.803672008547504E+01,      /* I = 80 */
(PID.TID 0000.0001)                 9.196327991452496E+01,      /* I = 81 */
(PID.TID 0000.0001)                 9.587273256875815E+01,      /* I = 82 */
(PID.TID 0000.0001)                 9.973157196212824E+01,      /* I = 83 */
(PID.TID 0000.0001)                 1.035083116938107E+02,      /* I = 84 */
(PID.TID 0000.0001)                 1.071745419238385E+02,      /* I = 85 */
(PID.TID 0000.0001)                 1.107056072951585E+02,      /* I = 86 */
(PID.TID 0000.0001)                 1.140808539514699E+02,      /* I = 87 */
(PID.TID 0000.0001)                 1.172834500820765E+02,      /* I = 88 */
(PID.TID 0000.0001)                 1.202998183221324E+02,      /* I = 89 */
(PID.TID 0000.0001)                 1.231187167466594E+02,      /* I = 90 */
(PID.TID 0000.0001)                 1.257299562852129E+02,      /* I = 91 */
(PID.TID 0000.0001)                 1.281226168021277E+02,      /* I = 92 */
(PID.TID 0000.0001)                 1.302823232885607E+02,      /* I = 93 */
(PID.TID 0000.0001)                 1.321863035748696E+02,      /* I = 94 */
(PID.TID 0000.0001)                 1.337919453120370E+02,      /* I = 95 */
(PID.TID 0000.0001)                 1.350000000000000E+02,      /* I = 96 */
(PID.TID 0000.0001)                 1.356047800523947E+02,      /* I = 97 */
(PID.TID 0000.0001)                 1.358367907661329E+02,      /* I = 98 */
(PID.TID 0000.0001)                 1.359720382181193E+02,      /* I = 99 */
(PID.TID 0000.0001)                 1.360654656901789E+02,      /* I =100 */
(PID.TID 0000.0001)                 1.361344533147043E+02,      /* I =101 */
(PID.TID 0000.0001)                 1.361871219420981E+02,      /* I =102 */
(PID.TID 0000.0001)                 1.362280794509603E+02,      /* I =103 */
(PID.TID 0000.0001)                 1.362602511071934E+02,      /* I =104 */
(PID.TID 0000.0001)                 1.362856280326734E+02,      /* I =105 */
(PID.TID 0000.0001)                 1.363056266270901E+02,      /* I =106 */
(PID.TID 0000.0001)                 1.363212817739446E+02,      /* I =107 */
(PID.TID 0000.0001)                 1.363333595910255E+02,      /* I =108 */
(PID.TID 0000.0001)                 1.363424272425760E+02,      /* I =109 */
(PID.TID 0000.0001)                 1.363488978790713E+02,      /* I =110 */
(PID.TID 0000.0001)                 1.363530600590580E+02,      /* I =111 */
(PID.TID 0000.0001)     2 @  1.363550967500717E+02,             /* I =112:113 */
(PID.TID 0000.0001)                 1.363530600590580E+02,      /* I =114 */
(PID.TID 0000.0001)                 1.363488978790713E+02,      /* I =115 */
(PID.TID 0000.0001)                 1.363424272425760E+02,      /* I =116 */
(PID.TID 0000.0001)                 1.363333595910255E+02,      /* I =117 */
(PID.TID 0000.0001)                 1.363212817739446E+02,      /* I =118 */
(PID.TID 0000.0001)                 1.363056266270901E+02,      /* I =119 */
(PID.TID 0000.0001)                 1.362856280326734E+02,      /* I =120 */
(PID.TID 0000.0001)                 1.362602511071934E+02,      /* I =121 */
(PID.TID 0000.0001)                 1.362280794509603E+02,      /* I =122 */
(PID.TID 0000.0001)                 1.361871219420981E+02,      /* I =123 */
(PID.TID 0000.0001)                 1.361344533147043E+02,      /* I =124 */
(PID.TID 0000.0001)                 1.360654656901789E+02,      /* I =125 */
(PID.TID 0000.0001)                 1.359720382181193E+02,      /* I =126 */
(PID.TID 0000.0001)                 1.358367907661329E+02,      /* I =127 */
(PID.TID 0000.0001)                 1.356047800523947E+02,      /* I =128 */
(PID.TID 0000.0001)                -1.343952199476053E+02,      /* I =129 */
(PID.TID 0000.0001)                -1.341632092338671E+02,      /* I =130 */
(PID.TID 0000.0001)                -1.340279617818807E+02,      /* I =131 */
(PID.TID 0000.0001)                -1.339345343098211E+02,      /* I =132 */
(PID.TID 0000.0001)                -1.338655466852958E+02,      /* I =133 */
(PID.TID 0000.0001)                -1.338128780579019E+02,      /* I =134 */
(PID.TID 0000.0001)                -1.337719205490397E+02,      /* I =135 */
(PID.TID 0000.0001)                -1.337397488928066E+02,      /* I =136 */
(PID.TID 0000.0001)                -1.337143719673266E+02,      /* I =137 */
(PID.TID 0000.0001)                -1.336943733729099E+02,      /* I =138 */
(PID.TID 0000.0001)                -1.336787182260554E+02,      /* I =139 */
(PID.TID 0000.0001)                -1.336666404089745E+02,      /* I =140 */
(PID.TID 0000.0001)                -1.336575727574240E+02,      /* I =141 */
(PID.TID 0000.0001)                -1.336511021209287E+02,      /* I =142 */
(PID.TID 0000.0001)                -1.336469399409420E+02,      /* I =143 */
(PID.TID 0000.0001)     2 @ -1.336449032499283E+02,             /* I =144:145 */
(PID.TID 0000.0001)                -1.336469399409420E+02,      /* I =146 */
(PID.TID 0000.0001)                -1.336511021209287E+02,      /* I =147 */
(PID.TID 0000.0001)                -1.336575727574240E+02,      /* I =148 */
(PID.TID 0000.0001)                -1.336666404089745E+02,      /* I =149 */
(PID.TID 0000.0001)                -1.336787182260554E+02,      /* I =150 */
(PID.TID 0000.0001)                -1.336943733729099E+02,      /* I =151 */
(PID.TID 0000.0001)                -1.337143719673266E+02,      /* I =152 */
(PID.TID 0000.0001)                -1.337397488928066E+02,      /* I =153 */
(PID.TID 0000.0001)                -1.337719205490397E+02,      /* I =154 */
(PID.TID 0000.0001)                -1.338128780579019E+02,      /* I =155 */
(PID.TID 0000.0001)                -1.338655466852958E+02,      /* I =156 */
(PID.TID 0000.0001)                -1.339345343098211E+02,      /* I =157 */
(PID.TID 0000.0001)                -1.340279617818807E+02,      /* I =158 */
(PID.TID 0000.0001)                -1.341632092338671E+02,      /* I =159 */
(PID.TID 0000.0001)                -1.343952199476053E+02,      /* I =160 */
(PID.TID 0000.0001)                -1.350000000000000E+02,      /* I =161 */
(PID.TID 0000.0001)                -1.362080546879630E+02,      /* I =162 */
(PID.TID 0000.0001)                -1.378136964251304E+02,      /* I =163 */
(PID.TID 0000.0001)                -1.397176767114393E+02,      /* I =164 */
(PID.TID 0000.0001)                -1.418773831978724E+02,      /* I =165 */
(PID.TID 0000.0001)                -1.442700437147871E+02,      /* I =166 */
(PID.TID 0000.0001)                -1.468812832533406E+02,      /* I =167 */
(PID.TID 0000.0001)                -1.497001816778676E+02,      /* I =168 */
(PID.TID 0000.0001)                -1.527165499179235E+02,      /* I =169 */
(PID.TID 0000.0001)                -1.559191460485302E+02,      /* I =170 */
(PID.TID 0000.0001)                -1.592943927048415E+02,      /* I =171 */
(PID.TID 0000.0001)                -1.628254580761615E+02,      /* I =172 */
(PID.TID 0000.0001)                -1.664916883061893E+02,      /* I =173 */
(PID.TID 0000.0001)                -1.702684280378718E+02,      /* I =174 */
(PID.TID 0000.0001)                -1.741272674312418E+02,      /* I =175 */
(PID.TID 0000.0001)                -1.780367200854751E+02,      /* I =176 */
(PID.TID 0000.0001)                 1.780367200854751E+02,      /* I =177 */
(PID.TID 0000.0001)                 1.741272674312418E+02,      /* I =178 */
(PID.TID 0000.0001)                 1.702684280378718E+02,      /* I =179 */
(PID.TID 0000.0001)                 1.664916883061893E+02,      /* I =180 */
(PID.TID 0000.0001)                 1.628254580761615E+02,      /* I =181 */
(PID.TID 0000.0001)                 1.592943927048415E+02,      /* I =182 */
(PID.TID 0000.0001)                 1.559191460485302E+02,      /* I =183 */
(PID.TID 0000.0001)                 1.527165499179235E+02,      /* I =184 */
(PID.TID 0000.0001)                 1.497001816778676E+02,      /* I =185 */
(PID.TID 0000.0001)                 1.468812832533406E+02,      /* I =186 */
(PID.TID 0000.0001)                 1.442700437147871E+02,      /* I =187 */
(PID.TID 0000.0001)                 1.418773831978724E+02,      /* I =188 */
(PID.TID 0000.0001)                 1.397176767114393E+02,      /* I =189 */
(PID.TID 0000.0001)                 1.378136964251304E+02,      /* I =190 */
(PID.TID 0000.0001)                 1.362080546879630E+02,      /* I =191 */
(PID.TID 0000.0001)                 1.350000000000000E+02       /* I =192 */
(PID.TID 0000.0001)     ;
(PID.TID 0000.0001) ycoord =   /* P-point Y coord ( m - cartesian, degrees - spherical ) */
(PID.TID 0000.0001)                -3.497677942598243E+01,      /* J =  1 */
(PID.TID 0000.0001)                -3.374005967394886E+01,      /* J =  2 */
(PID.TID 0000.0001)                -3.220655175667454E+01,      /* J =  3 */
(PID.TID 0000.0001)                -3.045756348838641E+01,      /* J =  4 */
(PID.TID 0000.0001)                -2.853728129852918E+01,      /* J =  5 */
(PID.TID 0000.0001)                -2.647426640173173E+01,      /* J =  6 */
(PID.TID 0000.0001)                -2.428936657094636E+01,      /* J =  7 */
(PID.TID 0000.0001)                -2.199915808312262E+01,      /* J =  8 */
(PID.TID 0000.0001)                -1.961768597440146E+01,      /* J =  9 */
(PID.TID 0000.0001)                -1.715743888281371E+01,      /* J = 10 */
(PID.TID 0000.0001)                -1.462993396899330E+01,      /* J = 11 */
(PID.TID 0000.0001)                -1.204608340464756E+01,      /* J = 12 */
(PID.TID 0000.0001)                -9.416429130284818E+00,      /* J = 13 */
(PID.TID 0000.0001)                -6.751293662992216E+00,      /* J = 14 */
(PID.TID 0000.0001)                -4.060875511835959E+00,      /* J = 15 */
(PID.TID 0000.0001)                -1.355307764409121E+00,      /* J = 16 */
(PID.TID 0000.0001)                 1.355307764409121E+00,      /* J = 17 */
(PID.TID 0000.0001)                 4.060875511835959E+00,      /* J = 18 */
(PID.TID 0000.0001)                 6.751293662992216E+00,      /* J = 19 */
(PID.TID 0000.0001)                 9.416429130284818E+00,      /* J = 20 */
(PID.TID 0000.0001)                 1.204608340464756E+01,      /* J = 21 */
(PID.TID 0000.0001)                 1.462993396899330E+01,      /* J = 22 */
(PID.TID 0000.0001)                 1.715743888281371E+01,      /* J = 23 */
(PID.TID 0000.0001)                 1.961768597440146E+01,      /* J = 24 */
(PID.TID 0000.0001)                 2.199915808312262E+01,      /* J = 25 */
(PID.TID 0000.0001)                 2.428936657094636E+01,      /* J = 26 */
(PID.TID 0000.0001)                 2.647426640173173E+01,      /* J = 27 */
(PID.TID 0000.0001)                 2.853728129852918E+01,      /* J = 28 */
(PID.TID 0000.0001)                 3.045756348838641E+01,      /* J = 29 */
(PID.TID 0000.0001)                 3.220655175667454E+01,      /* J = 30 */
(PID.TID 0000.0001)                 3.374005967394886E+01,      /* J = 31 */
(PID.TID 0000.0001)                 3.497677942598243E+01       /* J = 32 */
(PID.TID 0000.0001)     ;
(PID.TID 0000.0001) rcoord =   /* P-point R coordinate (  units of r ) */
(PID.TID 0000.0001)                 9.500000000000000E+04,      /* K =  1 */
(PID.TID 0000.0001)                 7.750000000000000E+04,      /* K =  2 */
(PID.TID 0000.0001)                 5.000000000000000E+04,      /* K =  3 */
(PID.TID 0000.0001)                 2.500000000000000E+04,      /* K =  4 */
(PID.TID 0000.0001)                 7.500000000000000E+03       /* K =  5 */
(PID.TID 0000.0001)     ;
(PID.TID 0000.0001) dxF =  /* dxF(:,1,:,1) ( m - cartesian, degrees - spherical ) */
(PID.TID 0000.0001)                 1.202082051331828E+05,      /* I =  1 */
(PID.TID 0000.0001)                 1.563594089971120E+05,      /* I =  2 */
(PID.TID 0000.0001)                 1.835530058121492E+05,      /* I =  3 */
(PID.TID 0000.0001)                 2.045883481718707E+05,      /* I =  4 */
(PID.TID 0000.0001)                 2.218350349844185E+05,      /* I =  5 */
(PID.TID 0000.0001)                 2.364352994647058E+05,      /* I =  6 */
(PID.TID 0000.0001)                 2.490022710862746E+05,      /* I =  7 */
(PID.TID 0000.0001)                 2.598919724358304E+05,      /* I =  8 */
(PID.TID 0000.0001)                 2.693210245495156E+05,      /* I =  9 */
(PID.TID 0000.0001)                 2.774243179696503E+05,      /* I = 10 */
(PID.TID 0000.0001)                 2.842862532064524E+05,      /* I = 11 */
(PID.TID 0000.0001)                 2.899590699694043E+05,      /* I = 12 */
(PID.TID 0000.0001)                 2.944742915095688E+05,      /* I = 13 */
(PID.TID 0000.0001)                 2.978501920522794E+05,      /* I = 14 */
(PID.TID 0000.0001)                 3.000967749619962E+05,      /* I = 15 */
(PID.TID 0000.0001)     2 @  3.012190981969055E+05,             /* I = 16: 17 */
(PID.TID 0000.0001)                 3.000967749619962E+05,      /* I = 18 */
(PID.TID 0000.0001)                 2.978501920522794E+05,      /* I = 19 */
(PID.TID 0000.0001)                 2.944742915095688E+05,      /* I = 20 */
(PID.TID 0000.0001)                 2.899590699694043E+05,      /* I = 21 */
(PID.TID 0000.0001)                 2.842862532064524E+05,      /* I = 22 */
(PID.TID 0000.0001)                 2.774243179696503E+05,      /* I = 23 */
(PID.TID 0000.0001)                 2.693210245495156E+05,      /* I = 24 */
(PID.TID 0000.0001)                 2.598919724358304E+05,      /* I = 25 */
(PID.TID 0000.0001)                 2.490022710862746E+05,      /* I = 26 */
(PID.TID 0000.0001)                 2.364352994647058E+05,      /* I = 27 */
(PID.TID 0000.0001)                 2.218350349844185E+05,      /* I = 28 */
(PID.TID 0000.0001)                 2.045883481718707E+05,      /* I = 29 */
(PID.TID 0000.0001)                 1.835530058121492E+05,      /* I = 30 */
(PID.TID 0000.0001)                 1.563594089971120E+05,      /* I = 31 */
(PID.TID 0000.0001)     2 @  1.202082051331828E+05,             /* I = 32: 33 */
(PID.TID 0000.0001)                 1.563594089971120E+05,      /* I = 34 */
(PID.TID 0000.0001)                 1.835530058121492E+05,      /* I = 35 */
(PID.TID 0000.0001)                 2.045883481718707E+05,      /* I = 36 */
(PID.TID 0000.0001)                 2.218350349844185E+05,      /* I = 37 */
(PID.TID 0000.0001)                 2.364352994647058E+05,      /* I = 38 */
(PID.TID 0000.0001)                 2.490022710862746E+05,      /* I = 39 */
(PID.TID 0000.0001)                 2.598919724358304E+05,      /* I = 40 */
(PID.TID 0000.0001)                 2.693210245495156E+05,      /* I = 41 */
(PID.TID 0000.0001)                 2.774243179696503E+05,      /* I = 42 */
(PID.TID 0000.0001)                 2.842862532064524E+05,      /* I = 43 */
(PID.TID 0000.0001)                 2.899590699694043E+05,      /* I = 44 */
(PID.TID 0000.0001)                 2.944742915095688E+05,      /* I = 45 */
(PID.TID 0000.0001)                 2.978501920522794E+05,      /* I = 46 */
(PID.TID 0000.0001)                 3.000967749619962E+05,      /* I = 47 */
(PID.TID 0000.0001)     2 @  3.012190981969055E+05,             /* I = 48: 49 */
(PID.TID 0000.0001)                 3.000967749619962E+05,      /* I = 50 */
(PID.TID 0000.0001)                 2.978501920522794E+05,      /* I = 51 */
(PID.TID 0000.0001)                 2.944742915095688E+05,      /* I = 52 */
(PID.TID 0000.0001)                 2.899590699694043E+05,      /* I = 53 */
(PID.TID 0000.0001)                 2.842862532064524E+05,      /* I = 54 */
(PID.TID 0000.0001)                 2.774243179696503E+05,      /* I = 55 */
(PID.TID 0000.0001)                 2.693210245495156E+05,      /* I = 56 */
(PID.TID 0000.0001)                 2.598919724358304E+05,      /* I = 57 */
(PID.TID 0000.0001)                 2.490022710862746E+05,      /* I = 58 */
(PID.TID 0000.0001)                 2.364352994647058E+05,      /* I = 59 */
(PID.TID 0000.0001)                 2.218350349844185E+05,      /* I = 60 */
(PID.TID 0000.0001)                 2.045883481718707E+05,      /* I = 61 */
(PID.TID 0000.0001)                 1.835530058121492E+05,      /* I = 62 */
(PID.TID 0000.0001)                 1.563594089971120E+05,      /* I = 63 */
(PID.TID 0000.0001)     2 @  1.202082051331828E+05,             /* I = 64: 65 */
(PID.TID 0000.0001)                 1.563594089971120E+05,      /* I = 66 */
(PID.TID 0000.0001)                 1.835530058121492E+05,      /* I = 67 */
(PID.TID 0000.0001)                 2.045883481718707E+05,      /* I = 68 */
(PID.TID 0000.0001)                 2.218350349844185E+05,      /* I = 69 */
(PID.TID 0000.0001)                 2.364352994647058E+05,      /* I = 70 */
(PID.TID 0000.0001)                 2.490022710862746E+05,      /* I = 71 */
(PID.TID 0000.0001)                 2.598919724358304E+05,      /* I = 72 */
(PID.TID 0000.0001)                 2.693210245495156E+05,      /* I = 73 */
(PID.TID 0000.0001)                 2.774243179696503E+05,      /* I = 74 */
(PID.TID 0000.0001)                 2.842862532064524E+05,      /* I = 75 */
(PID.TID 0000.0001)                 2.899590699694043E+05,      /* I = 76 */
(PID.TID 0000.0001)                 2.944742915095688E+05,      /* I = 77 */
(PID.TID 0000.0001)                 2.978501920522794E+05,      /* I = 78 */
(PID.TID 0000.0001)                 3.000967749619962E+05,      /* I = 79 */
(PID.TID 0000.0001)     2 @  3.012190981969055E+05,             /* I = 80: 81 */
(PID.TID 0000.0001)                 3.000967749619962E+05,      /* I = 82 */
(PID.TID 0000.0001)                 2.978501920522794E+05,      /* I = 83 */
(PID.TID 0000.0001)                 2.944742915095688E+05,      /* I = 84 */
(PID.TID 0000.0001)                 2.899590699694043E+05,      /* I = 85 */
(PID.TID 0000.0001)                 2.842862532064524E+05,      /* I = 86 */
(PID.TID 0000.0001)                 2.774243179696503E+05,      /* I = 87 */
(PID.TID 0000.0001)                 2.693210245495156E+05,      /* I = 88 */
(PID.TID 0000.0001)                 2.598919724358304E+05,      /* I = 89 */
(PID.TID 0000.0001)                 2.490022710862746E+05,      /* I = 90 */
(PID.TID 0000.0001)                 2.364352994647058E+05,      /* I = 91 */
(PID.TID 0000.0001)                 2.218350349844185E+05,      /* I = 92 */
(PID.TID 0000.0001)                 2.045883481718707E+05,      /* I = 93 */
(PID.TID 0000.0001)                 1.835530058121492E+05,      /* I = 94 */
(PID.TID 0000.0001)                 1.563594089971120E+05,      /* I = 95 */
(PID.TID 0000.0001)     2 @  1.202082051331828E+05,             /* I = 96: 97 */
(PID.TID 0000.0001)                 1.563594089971120E+05,      /* I = 98 */
(PID.TID 0000.0001)                 1.835530058121492E+05,      /* I = 99 */
(PID.TID 0000.0001)                 2.045883481718707E+05,      /* I =100 */
(PID.TID 0000.0001)                 2.218350349844185E+05,      /* I =101 */
(PID.TID 0000.0001)                 2.364352994647058E+05,      /* I =102 */
(PID.TID 0000.0001)                 2.490022710862746E+05,      /* I =103 */
(PID.TID 0000.0001)                 2.598919724358304E+05,      /* I =104 */
(PID.TID 0000.0001)                 2.693210245495156E+05,      /* I =105 */
(PID.TID 0000.0001)                 2.774243179696503E+05,      /* I =106 */
(PID.TID 0000.0001)                 2.842862532064524E+05,      /* I =107 */
(PID.TID 0000.0001)                 2.899590699694043E+05,      /* I =108 */
(PID.TID 0000.0001)                 2.944742915095688E+05,      /* I =109 */
(PID.TID 0000.0001)                 2.978501920522794E+05,      /* I =110 */
(PID.TID 0000.0001)                 3.000967749619962E+05,      /* I =111 */
(PID.TID 0000.0001)     2 @  3.012190981969055E+05,             /* I =112:113 */
(PID.TID 0000.0001)                 3.000967749619962E+05,      /* I =114 */
(PID.TID 0000.0001)                 2.978501920522794E+05,      /* I =115 */
(PID.TID 0000.0001)                 2.944742915095688E+05,      /* I =116 */
(PID.TID 0000.0001)                 2.899590699694043E+05,      /* I =117 */
(PID.TID 0000.0001)                 2.842862532064524E+05,      /* I =118 */
(PID.TID 0000.0001)                 2.774243179696503E+05,      /* I =119 */
(PID.TID 0000.0001)                 2.693210245495156E+05,      /* I =120 */
(PID.TID 0000.0001)                 2.598919724358304E+05,      /* I =121 */
(PID.TID 0000.0001)                 2.490022710862746E+05,      /* I =122 */
(PID.TID 0000.0001)                 2.364352994647058E+05,      /* I =123 */
(PID.TID 0000.0001)                 2.218350349844185E+05,      /* I =124 */
(PID.TID 0000.0001)                 2.045883481718707E+05,      /* I =125 */
(PID.TID 0000.0001)                 1.835530058121492E+05,      /* I =126 */
(PID.TID 0000.0001)                 1.563594089971120E+05,      /* I =127 */
(PID.TID 0000.0001)     2 @  1.202082051331828E+05,             /* I =128:129 */
(PID.TID 0000.0001)                 1.563594089971120E+05,      /* I =130 */
(PID.TID 0000.0001)                 1.835530058121492E+05,      /* I =131 */
(PID.TID 0000.0001)                 2.045883481718707E+05,      /* I =132 */
(PID.TID 0000.0001)                 2.218350349844185E+05,      /* I =133 */
(PID.TID 0000.0001)                 2.364352994647058E+05,      /* I =134 */
(PID.TID 0000.0001)                 2.490022710862746E+05,      /* I =135 */
(PID.TID 0000.0001)                 2.598919724358304E+05,      /* I =136 */
(PID.TID 0000.0001)                 2.693210245495156E+05,      /* I =137 */
(PID.TID 0000.0001)                 2.774243179696503E+05,      /* I =138 */
(PID.TID 0000.0001)                 2.842862532064524E+05,      /* I =139 */
(PID.TID 0000.0001)                 2.899590699694043E+05,      /* I =140 */
(PID.TID 0000.0001)                 2.944742915095688E+05,      /* I =141 */
(PID.TID 0000.0001)                 2.978501920522794E+05,      /* I =142 */
(PID.TID 0000.0001)                 3.000967749619962E+05,      /* I =143 */
(PID.TID 0000.0001)     2 @  3.012190981969055E+05,             /* I =144:145 */
(PID.TID 0000.0001)                 3.000967749619962E+05,      /* I =146 */
(PID.TID 0000.0001)                 2.978501920522794E+05,      /* I =147 */
(PID.TID 0000.0001)                 2.944742915095688E+05,      /* I =148 */
(PID.TID 0000.0001)                 2.899590699694043E+05,      /* I =149 */
(PID.TID 0000.0001)                 2.842862532064524E+05,      /* I =150 */
(PID.TID 0000.0001)                 2.774243179696503E+05,      /* I =151 */
(PID.TID 0000.0001)                 2.693210245495156E+05,      /* I =152 */
(PID.TID 0000.0001)                 2.598919724358304E+05,      /* I =153 */
(PID.TID 0000.0001)                 2.490022710862746E+05,      /* I =154 */
(PID.TID 0000.0001)                 2.364352994647058E+05,      /* I =155 */
(PID.TID 0000.0001)                 2.218350349844185E+05,      /* I =156 */
(PID.TID 0000.0001)                 2.045883481718707E+05,      /* I =157 */
(PID.TID 0000.0001)                 1.835530058121492E+05,      /* I =158 */
(PID.TID 0000.0001)                 1.563594089971120E+05,      /* I =159 */
(PID.TID 0000.0001)     2 @  1.202082051331828E+05,             /* I =160:161 */
(PID.TID 0000.0001)                 1.563594089971120E+05,      /* I =162 */
(PID.TID 0000.0001)                 1.835530058121492E+05,      /* I =163 */
(PID.TID 0000.0001)                 2.045883481718707E+05,      /* I =164 */
(PID.TID 0000.0001)                 2.218350349844185E+05,      /* I =165 */
(PID.TID 0000.0001)                 2.364352994647058E+05,      /* I =166 */
(PID.TID 0000.0001)                 2.490022710862746E+05,      /* I =167 */
(PID.TID 0000.0001)                 2.598919724358304E+05,      /* I =168 */
(PID.TID 0000.0001)                 2.693210245495156E+05,      /* I =169 */
(PID.TID 0000.0001)                 2.774243179696503E+05,      /* I =170 */
(PID.TID 0000.0001)                 2.842862532064524E+05,      /* I =171 */
(PID.TID 0000.0001)                 2.899590699694043E+05,      /* I =172 */
(PID.TID 0000.0001)                 2.944742915095688E+05,      /* I =173 */
(PID.TID 0000.0001)                 2.978501920522794E+05,      /* I =174 */
(PID.TID 0000.0001)                 3.000967749619962E+05,      /* I =175 */
(PID.TID 0000.0001)     2 @  3.012190981969055E+05,             /* I =176:177 */
(PID.TID 0000.0001)                 3.000967749619962E+05,      /* I =178 */
(PID.TID 0000.0001)                 2.978501920522794E+05,      /* I =179 */
(PID.TID 0000.0001)                 2.944742915095688E+05,      /* I =180 */
(PID.TID 0000.0001)                 2.899590699694043E+05,      /* I =181 */
(PID.TID 0000.0001)                 2.842862532064524E+05,      /* I =182 */
(PID.TID 0000.0001)                 2.774243179696503E+05,      /* I =183 */
(PID.TID 0000.0001)                 2.693210245495156E+05,      /* I =184 */
(PID.TID 0000.0001)                 2.598919724358304E+05,      /* I =185 */
(PID.TID 0000.0001)                 2.490022710862746E+05,      /* I =186 */
(PID.TID 0000.0001)                 2.364352994647058E+05,      /* I =187 */
(PID.TID 0000.0001)                 2.218350349844185E+05,      /* I =188 */
(PID.TID 0000.0001)                 2.045883481718707E+05,      /* I =189 */
(PID.TID 0000.0001)                 1.835530058121492E+05,      /* I =190 */
(PID.TID 0000.0001)                 1.563594089971120E+05,      /* I =191 */
(PID.TID 0000.0001)                 1.202082051331828E+05       /* I =192 */
(PID.TID 0000.0001)     ;
(PID.TID 0000.0001) dxF =  /* dxF(1,:,1,:) ( m - cartesian, degrees - spherical ) */
(PID.TID 0000.0001)                 1.202082051331828E+05,      /* J =  1 */
(PID.TID 0000.0001)                 1.572908084538706E+05,      /* J =  2 */
(PID.TID 0000.0001)                 1.840412227747703E+05,      /* J =  3 */
(PID.TID 0000.0001)                 2.048868197919577E+05,      /* J =  4 */
(PID.TID 0000.0001)                 2.220405216043041E+05,      /* J =  5 */
(PID.TID 0000.0001)                 2.365892017348392E+05,      /* J =  6 */
(PID.TID 0000.0001)                 2.491250781852558E+05,      /* J =  7 */
(PID.TID 0000.0001)                 2.599949918261881E+05,      /* J =  8 */
(PID.TID 0000.0001)                 2.694110134598581E+05,      /* J =  9 */
(PID.TID 0000.0001)                 2.775055554645015E+05,      /* J = 10 */
(PID.TID 0000.0001)                 2.843615645344775E+05,      /* J = 11 */
(PID.TID 0000.0001)                 2.900303768613599E+05,      /* J = 12 */
(PID.TID 0000.0001)                 2.945429307892709E+05,      /* J = 13 */
(PID.TID 0000.0001)                 2.979171143158405E+05,      /* J = 14 */
(PID.TID 0000.0001)                 3.001626787528886E+05,      /* J = 15 */
(PID.TID 0000.0001)     2 @  3.012844832048790E+05,             /* J = 16: 17 */
(PID.TID 0000.0001)                 3.001626787528886E+05,      /* J = 18 */
(PID.TID 0000.0001)                 2.979171143158405E+05,      /* J = 19 */
(PID.TID 0000.0001)                 2.945429307892709E+05,      /* J = 20 */
(PID.TID 0000.0001)                 2.900303768613599E+05,      /* J = 21 */
(PID.TID 0000.0001)                 2.843615645344775E+05,      /* J = 22 */
(PID.TID 0000.0001)                 2.775055554645015E+05,      /* J = 23 */
(PID.TID 0000.0001)                 2.694110134598581E+05,      /* J = 24 */
(PID.TID 0000.0001)                 2.599949918261881E+05,      /* J = 25 */
(PID.TID 0000.0001)                 2.491250781852558E+05,      /* J = 26 */
(PID.TID 0000.0001)                 2.365892017348392E+05,      /* J = 27 */
(PID.TID 0000.0001)                 2.220405216043041E+05,      /* J = 28 */
(PID.TID 0000.0001)                 2.048868197919577E+05,      /* J = 29 */
(PID.TID 0000.0001)                 1.840412227747703E+05,      /* J = 30 */
(PID.TID 0000.0001)                 1.572908084538706E+05,      /* J = 31 */
(PID.TID 0000.0001)                 1.202082051331828E+05       /* J = 32 */
(PID.TID 0000.0001)     ;
(PID.TID 0000.0001) dyF =  /* dyF(:,1,:,1) ( m - cartesian, degrees - spherical ) */
(PID.TID 0000.0001)                 1.202082051331828E+05,      /* I =  1 */
(PID.TID 0000.0001)                 1.572908084538706E+05,      /* I =  2 */
(PID.TID 0000.0001)                 1.840412227747703E+05,      /* I =  3 */
(PID.TID 0000.0001)                 2.048868197919577E+05,      /* I =  4 */
(PID.TID 0000.0001)                 2.220405216043041E+05,      /* I =  5 */
(PID.TID 0000.0001)                 2.365892017348392E+05,      /* I =  6 */
(PID.TID 0000.0001)                 2.491250781852558E+05,      /* I =  7 */
(PID.TID 0000.0001)                 2.599949918261881E+05,      /* I =  8 */
(PID.TID 0000.0001)                 2.694110134598581E+05,      /* I =  9 */
(PID.TID 0000.0001)                 2.775055554645015E+05,      /* I = 10 */
(PID.TID 0000.0001)                 2.843615645344775E+05,      /* I = 11 */
(PID.TID 0000.0001)                 2.900303768613599E+05,      /* I = 12 */
(PID.TID 0000.0001)                 2.945429307892709E+05,      /* I = 13 */
(PID.TID 0000.0001)                 2.979171143158405E+05,      /* I = 14 */
(PID.TID 0000.0001)                 3.001626787528886E+05,      /* I = 15 */
(PID.TID 0000.0001)     2 @  3.012844832048790E+05,             /* I = 16: 17 */
(PID.TID 0000.0001)                 3.001626787528886E+05,      /* I = 18 */
(PID.TID 0000.0001)                 2.979171143158405E+05,      /* I = 19 */
(PID.TID 0000.0001)                 2.945429307892709E+05,      /* I = 20 */
(PID.TID 0000.0001)                 2.900303768613599E+05,      /* I = 21 */
(PID.TID 0000.0001)                 2.843615645344775E+05,      /* I = 22 */
(PID.TID 0000.0001)                 2.775055554645015E+05,      /* I = 23 */
(PID.TID 0000.0001)                 2.694110134598581E+05,      /* I = 24 */
(PID.TID 0000.0001)                 2.599949918261881E+05,      /* I = 25 */
(PID.TID 0000.0001)                 2.491250781852558E+05,      /* I = 26 */
(PID.TID 0000.0001)                 2.365892017348392E+05,      /* I = 27 */
(PID.TID 0000.0001)                 2.220405216043041E+05,      /* I = 28 */
(PID.TID 0000.0001)                 2.048868197919577E+05,      /* I = 29 */
(PID.TID 0000.0001)                 1.840412227747703E+05,      /* I = 30 */
(PID.TID 0000.0001)                 1.572908084538706E+05,      /* I = 31 */
(PID.TID 0000.0001)     2 @  1.202082051331828E+05,             /* I = 32: 33 */
(PID.TID 0000.0001)                 1.572908084538706E+05,      /* I = 34 */
(PID.TID 0000.0001)                 1.840412227747703E+05,      /* I = 35 */
(PID.TID 0000.0001)                 2.048868197919577E+05,      /* I = 36 */
(PID.TID 0000.0001)                 2.220405216043041E+05,      /* I = 37 */
(PID.TID 0000.0001)                 2.365892017348392E+05,      /* I = 38 */
(PID.TID 0000.0001)                 2.491250781852558E+05,      /* I = 39 */
(PID.TID 0000.0001)                 2.599949918261881E+05,      /* I = 40 */
(PID.TID 0000.0001)                 2.694110134598581E+05,      /* I = 41 */
(PID.TID 0000.0001)                 2.775055554645015E+05,      /* I = 42 */
(PID.TID 0000.0001)                 2.843615645344775E+05,      /* I = 43 */
(PID.TID 0000.0001)                 2.900303768613599E+05,      /* I = 44 */
(PID.TID 0000.0001)                 2.945429307892709E+05,      /* I = 45 */
(PID.TID 0000.0001)                 2.979171143158405E+05,      /* I = 46 */
(PID.TID 0000.0001)                 3.001626787528886E+05,      /* I = 47 */
(PID.TID 0000.0001)     2 @  3.012844832048790E+05,             /* I = 48: 49 */
(PID.TID 0000.0001)                 3.001626787528886E+05,      /* I = 50 */
(PID.TID 0000.0001)                 2.979171143158405E+05,      /* I = 51 */
(PID.TID 0000.0001)                 2.945429307892709E+05,      /* I = 52 */
(PID.TID 0000.0001)                 2.900303768613599E+05,      /* I = 53 */
(PID.TID 0000.0001)                 2.843615645344775E+05,      /* I = 54 */
(PID.TID 0000.0001)                 2.775055554645015E+05,      /* I = 55 */
(PID.TID 0000.0001)                 2.694110134598581E+05,      /* I = 56 */
(PID.TID 0000.0001)                 2.599949918261881E+05,      /* I = 57 */
(PID.TID 0000.0001)                 2.491250781852558E+05,      /* I = 58 */
(PID.TID 0000.0001)                 2.365892017348392E+05,      /* I = 59 */
(PID.TID 0000.0001)                 2.220405216043041E+05,      /* I = 60 */
(PID.TID 0000.0001)                 2.048868197919577E+05,      /* I = 61 */
(PID.TID 0000.0001)                 1.840412227747703E+05,      /* I = 62 */
(PID.TID 0000.0001)                 1.572908084538706E+05,      /* I = 63 */
(PID.TID 0000.0001)     2 @  1.202082051331828E+05,             /* I = 64: 65 */
(PID.TID 0000.0001)                 1.572908084538706E+05,      /* I = 66 */
(PID.TID 0000.0001)                 1.840412227747703E+05,      /* I = 67 */
(PID.TID 0000.0001)                 2.048868197919577E+05,      /* I = 68 */
(PID.TID 0000.0001)                 2.220405216043041E+05,      /* I = 69 */
(PID.TID 0000.0001)                 2.365892017348392E+05,      /* I = 70 */
(PID.TID 0000.0001)                 2.491250781852558E+05,      /* I = 71 */
(PID.TID 0000.0001)                 2.599949918261881E+05,      /* I = 72 */
(PID.TID 0000.0001)                 2.694110134598581E+05,      /* I = 73 */
(PID.TID 0000.0001)                 2.775055554645015E+05,      /* I = 74 */
(PID.TID 0000.0001)                 2.843615645344775E+05,      /* I = 75 */
(PID.TID 0000.0001)                 2.900303768613599E+05,      /* I = 76 */
(PID.TID 0000.0001)                 2.945429307892709E+05,      /* I = 77 */
(PID.TID 0000.0001)                 2.979171143158405E+05,      /* I = 78 */
(PID.TID 0000.0001)                 3.001626787528886E+05,      /* I = 79 */
(PID.TID 0000.0001)     2 @  3.012844832048790E+05,             /* I = 80: 81 */
(PID.TID 0000.0001)                 3.001626787528886E+05,      /* I = 82 */
(PID.TID 0000.0001)                 2.979171143158405E+05,      /* I = 83 */
(PID.TID 0000.0001)                 2.945429307892709E+05,      /* I = 84 */
(PID.TID 0000.0001)                 2.900303768613599E+05,      /* I = 85 */
(PID.TID 0000.0001)                 2.843615645344775E+05,      /* I = 86 */
(PID.TID 0000.0001)                 2.775055554645015E+05,      /* I = 87 */
(PID.TID 0000.0001)                 2.694110134598581E+05,      /* I = 88 */
(PID.TID 0000.0001)                 2.599949918261881E+05,      /* I = 89 */
(PID.TID 0000.0001)                 2.491250781852558E+05,      /* I = 90 */
(PID.TID 0000.0001)                 2.365892017348392E+05,      /* I = 91 */
(PID.TID 0000.0001)                 2.220405216043041E+05,      /* I = 92 */
(PID.TID 0000.0001)                 2.048868197919577E+05,      /* I = 93 */
(PID.TID 0000.0001)                 1.840412227747703E+05,      /* I = 94 */
(PID.TID 0000.0001)                 1.572908084538706E+05,      /* I = 95 */
(PID.TID 0000.0001)     2 @  1.202082051331828E+05,             /* I = 96: 97 */
(PID.TID 0000.0001)                 1.572908084538706E+05,      /* I = 98 */
(PID.TID 0000.0001)                 1.840412227747703E+05,      /* I = 99 */
(PID.TID 0000.0001)                 2.048868197919577E+05,      /* I =100 */
(PID.TID 0000.0001)                 2.220405216043041E+05,      /* I =101 */
(PID.TID 0000.0001)                 2.365892017348392E+05,      /* I =102 */
(PID.TID 0000.0001)                 2.491250781852558E+05,      /* I =103 */
(PID.TID 0000.0001)                 2.599949918261881E+05,      /* I =104 */
(PID.TID 0000.0001)                 2.694110134598581E+05,      /* I =105 */
(PID.TID 0000.0001)                 2.775055554645015E+05,      /* I =106 */
(PID.TID 0000.0001)                 2.843615645344775E+05,      /* I =107 */
(PID.TID 0000.0001)                 2.900303768613599E+05,      /* I =108 */
(PID.TID 0000.0001)                 2.945429307892709E+05,      /* I =109 */
(PID.TID 0000.0001)                 2.979171143158405E+05,      /* I =110 */
(PID.TID 0000.0001)                 3.001626787528886E+05,      /* I =111 */
(PID.TID 0000.0001)     2 @  3.012844832048790E+05,             /* I =112:113 */
(PID.TID 0000.0001)                 3.001626787528886E+05,      /* I =114 */
(PID.TID 0000.0001)                 2.979171143158405E+05,      /* I =115 */
(PID.TID 0000.0001)                 2.945429307892709E+05,      /* I =116 */
(PID.TID 0000.0001)                 2.900303768613599E+05,      /* I =117 */
(PID.TID 0000.0001)                 2.843615645344775E+05,      /* I =118 */
(PID.TID 0000.0001)                 2.775055554645015E+05,      /* I =119 */
(PID.TID 0000.0001)                 2.694110134598581E+05,      /* I =120 */
(PID.TID 0000.0001)                 2.599949918261881E+05,      /* I =121 */
(PID.TID 0000.0001)                 2.491250781852558E+05,      /* I =122 */
(PID.TID 0000.0001)                 2.365892017348392E+05,      /* I =123 */
(PID.TID 0000.0001)                 2.220405216043041E+05,      /* I =124 */
(PID.TID 0000.0001)                 2.048868197919577E+05,      /* I =125 */
(PID.TID 0000.0001)                 1.840412227747703E+05,      /* I =126 */
(PID.TID 0000.0001)                 1.572908084538706E+05,      /* I =127 */
(PID.TID 0000.0001)     2 @  1.202082051331828E+05,             /* I =128:129 */
(PID.TID 0000.0001)                 1.572908084538706E+05,      /* I =130 */
(PID.TID 0000.0001)                 1.840412227747703E+05,      /* I =131 */
(PID.TID 0000.0001)                 2.048868197919577E+05,      /* I =132 */
(PID.TID 0000.0001)                 2.220405216043041E+05,      /* I =133 */
(PID.TID 0000.0001)                 2.365892017348392E+05,      /* I =134 */
(PID.TID 0000.0001)                 2.491250781852558E+05,      /* I =135 */
(PID.TID 0000.0001)                 2.599949918261881E+05,      /* I =136 */
(PID.TID 0000.0001)                 2.694110134598581E+05,      /* I =137 */
(PID.TID 0000.0001)                 2.775055554645015E+05,      /* I =138 */
(PID.TID 0000.0001)                 2.843615645344775E+05,      /* I =139 */
(PID.TID 0000.0001)                 2.900303768613599E+05,      /* I =140 */
(PID.TID 0000.0001)                 2.945429307892709E+05,      /* I =141 */
(PID.TID 0000.0001)                 2.979171143158405E+05,      /* I =142 */
(PID.TID 0000.0001)                 3.001626787528886E+05,      /* I =143 */
(PID.TID 0000.0001)     2 @  3.012844832048790E+05,             /* I =144:145 */
(PID.TID 0000.0001)                 3.001626787528886E+05,      /* I =146 */
(PID.TID 0000.0001)                 2.979171143158405E+05,      /* I =147 */
(PID.TID 0000.0001)                 2.945429307892709E+05,      /* I =148 */
(PID.TID 0000.0001)                 2.900303768613599E+05,      /* I =149 */
(PID.TID 0000.0001)                 2.843615645344775E+05,      /* I =150 */
(PID.TID 0000.0001)                 2.775055554645015E+05,      /* I =151 */
(PID.TID 0000.0001)                 2.694110134598581E+05,      /* I =152 */
(PID.TID 0000.0001)                 2.599949918261881E+05,      /* I =153 */
(PID.TID 0000.0001)                 2.491250781852558E+05,      /* I =154 */
(PID.TID 0000.0001)                 2.365892017348392E+05,      /* I =155 */
(PID.TID 0000.0001)                 2.220405216043041E+05,      /* I =156 */
(PID.TID 0000.0001)                 2.048868197919577E+05,      /* I =157 */
(PID.TID 0000.0001)                 1.840412227747703E+05,      /* I =158 */
(PID.TID 0000.0001)                 1.572908084538706E+05,      /* I =159 */
(PID.TID 0000.0001)     2 @  1.202082051331828E+05,             /* I =160:161 */
(PID.TID 0000.0001)                 1.572908084538706E+05,      /* I =162 */
(PID.TID 0000.0001)                 1.840412227747703E+05,      /* I =163 */
(PID.TID 0000.0001)                 2.048868197919577E+05,      /* I =164 */
(PID.TID 0000.0001)                 2.220405216043041E+05,      /* I =165 */
(PID.TID 0000.0001)                 2.365892017348392E+05,      /* I =166 */
(PID.TID 0000.0001)                 2.491250781852558E+05,      /* I =167 */
(PID.TID 0000.0001)                 2.599949918261881E+05,      /* I =168 */
(PID.TID 0000.0001)                 2.694110134598581E+05,      /* I =169 */
(PID.TID 0000.0001)                 2.775055554645015E+05,      /* I =170 */
(PID.TID 0000.0001)                 2.843615645344775E+05,      /* I =171 */
(PID.TID 0000.0001)                 2.900303768613599E+05,      /* I =172 */
(PID.TID 0000.0001)                 2.945429307892709E+05,      /* I =173 */
(PID.TID 0000.0001)                 2.979171143158405E+05,      /* I =174 */
(PID.TID 0000.0001)                 3.001626787528886E+05,      /* I =175 */
(PID.TID 0000.0001)     2 @  3.012844832048790E+05,             /* I =176:177 */
(PID.TID 0000.0001)                 3.001626787528886E+05,      /* I =178 */
(PID.TID 0000.0001)                 2.979171143158405E+05,      /* I =179 */
(PID.TID 0000.0001)                 2.945429307892709E+05,      /* I =180 */
(PID.TID 0000.0001)                 2.900303768613599E+05,      /* I =181 */
(PID.TID 0000.0001)                 2.843615645344775E+05,      /* I =182 */
(PID.TID 0000.0001)                 2.775055554645015E+05,      /* I =183 */
(PID.TID 0000.0001)                 2.694110134598581E+05,      /* I =184 */
(PID.TID 0000.0001)                 2.599949918261881E+05,      /* I =185 */
(PID.TID 0000.0001)                 2.491250781852558E+05,      /* I =186 */
(PID.TID 0000.0001)                 2.365892017348392E+05,      /* I =187 */
(PID.TID 0000.0001)                 2.220405216043041E+05,      /* I =188 */
(PID.TID 0000.0001)                 2.048868197919577E+05,      /* I =189 */
(PID.TID 0000.0001)                 1.840412227747703E+05,      /* I =190 */
(PID.TID 0000.0001)                 1.572908084538706E+05,      /* I =191 */
(PID.TID 0000.0001)                 1.202082051331828E+05       /* I =192 */
(PID.TID 0000.0001)     ;
(PID.TID 0000.0001) dyF =  /* dyF(1,:,1,:) ( m - cartesian, degrees - spherical ) */
(PID.TID 0000.0001)                 1.202082051331828E+05,      /* J =  1 */
(PID.TID 0000.0001)                 1.563594089971120E+05,      /* J =  2 */
(PID.TID 0000.0001)                 1.835530058121492E+05,      /* J =  3 */
(PID.TID 0000.0001)                 2.045883481718707E+05,      /* J =  4 */
(PID.TID 0000.0001)                 2.218350349844185E+05,      /* J =  5 */
(PID.TID 0000.0001)                 2.364352994647058E+05,      /* J =  6 */
(PID.TID 0000.0001)                 2.490022710862746E+05,      /* J =  7 */
(PID.TID 0000.0001)                 2.598919724358304E+05,      /* J =  8 */
(PID.TID 0000.0001)                 2.693210245495156E+05,      /* J =  9 */
(PID.TID 0000.0001)                 2.774243179696503E+05,      /* J = 10 */
(PID.TID 0000.0001)                 2.842862532064524E+05,      /* J = 11 */
(PID.TID 0000.0001)                 2.899590699694043E+05,      /* J = 12 */
(PID.TID 0000.0001)                 2.944742915095688E+05,      /* J = 13 */
(PID.TID 0000.0001)                 2.978501920522794E+05,      /* J = 14 */
(PID.TID 0000.0001)                 3.000967749619962E+05,      /* J = 15 */
(PID.TID 0000.0001)     2 @  3.012190981969055E+05,             /* J = 16: 17 */
(PID.TID 0000.0001)                 3.000967749619962E+05,      /* J = 18 */
(PID.TID 0000.0001)                 2.978501920522794E+05,      /* J = 19 */
(PID.TID 0000.0001)                 2.944742915095688E+05,      /* J = 20 */
(PID.TID 0000.0001)                 2.899590699694043E+05,      /* J = 21 */
(PID.TID 0000.0001)                 2.842862532064524E+05,      /* J = 22 */
(PID.TID 0000.0001)                 2.774243179696503E+05,      /* J = 23 */
(PID.TID 0000.0001)                 2.693210245495156E+05,      /* J = 24 */
(PID.TID 0000.0001)                 2.598919724358304E+05,      /* J = 25 */
(PID.TID 0000.0001)                 2.490022710862746E+05,      /* J = 26 */
(PID.TID 0000.0001)                 2.364352994647058E+05,      /* J = 27 */
(PID.TID 0000.0001)                 2.218350349844185E+05,      /* J = 28 */
(PID.TID 0000.0001)                 2.045883481718707E+05,      /* J = 29 */
(PID.TID 0000.0001)                 1.835530058121492E+05,      /* J = 30 */
(PID.TID 0000.0001)                 1.563594089971120E+05,      /* J = 31 */
(PID.TID 0000.0001)                 1.202082051331828E+05       /* J = 32 */
(PID.TID 0000.0001)     ;
(PID.TID 0000.0001) dxG =  /* dxG(:,1,:,1) ( m - cartesian, degrees - spherical ) */
(PID.TID 0000.0001)                 1.009837800879055E+05,      /* I =  1 */
(PID.TID 0000.0001)                 1.534505834330338E+05,      /* I =  2 */
(PID.TID 0000.0001)                 1.823321598773926E+05,      /* I =  3 */
(PID.TID 0000.0001)                 2.038999045536999E+05,      /* I =  4 */
(PID.TID 0000.0001)                 2.213884732245467E+05,      /* I =  5 */
(PID.TID 0000.0001)                 2.361211699596122E+05,      /* I =  6 */
(PID.TID 0000.0001)                 2.487693460283865E+05,      /* I =  7 */
(PID.TID 0000.0001)                 2.597126963772147E+05,      /* I =  8 */
(PID.TID 0000.0001)                 2.691790288994575E+05,      /* I =  9 */
(PID.TID 0000.0001)                 2.773091043277394E+05,      /* I = 10 */
(PID.TID 0000.0001)                 2.841906470085516E+05,      /* I = 11 */
(PID.TID 0000.0001)                 2.898778860929753E+05,      /* I = 12 */
(PID.TID 0000.0001)                 2.944035815526416E+05,      /* I = 13 */
(PID.TID 0000.0001)                 2.977867909042096E+05,      /* I = 14 */
(PID.TID 0000.0001)                 3.000380090330854E+05,      /* I = 15 */
(PID.TID 0000.0001)     2 @  3.011625828699101E+05,             /* I = 16: 17 */
(PID.TID 0000.0001)                 3.000380090330854E+05,      /* I = 18 */
(PID.TID 0000.0001)                 2.977867909042096E+05,      /* I = 19 */
(PID.TID 0000.0001)                 2.944035815526416E+05,      /* I = 20 */
(PID.TID 0000.0001)                 2.898778860929753E+05,      /* I = 21 */
(PID.TID 0000.0001)                 2.841906470085516E+05,      /* I = 22 */
(PID.TID 0000.0001)                 2.773091043277394E+05,      /* I = 23 */
(PID.TID 0000.0001)                 2.691790288994575E+05,      /* I = 24 */
(PID.TID 0000.0001)                 2.597126963772147E+05,      /* I = 25 */
(PID.TID 0000.0001)                 2.487693460283865E+05,      /* I = 26 */
(PID.TID 0000.0001)                 2.361211699596122E+05,      /* I = 27 */
(PID.TID 0000.0001)                 2.213884732245467E+05,      /* I = 28 */
(PID.TID 0000.0001)                 2.038999045536999E+05,      /* I = 29 */
(PID.TID 0000.0001)                 1.823321598773926E+05,      /* I = 30 */
(PID.TID 0000.0001)                 1.534505834330338E+05,      /* I = 31 */
(PID.TID 0000.0001)     2 @  1.009837800879055E+05,             /* I = 32: 33 */
(PID.TID 0000.0001)                 1.534505834330338E+05,      /* I = 34 */
(PID.TID 0000.0001)                 1.823321598773926E+05,      /* I = 35 */
(PID.TID 0000.0001)                 2.038999045536999E+05,      /* I = 36 */
(PID.TID 0000.0001)                 2.213884732245467E+05,      /* I = 37 */
(PID.TID 0000.0001)                 2.361211699596122E+05,      /* I = 38 */
(PID.TID 0000.0001)                 2.487693460283865E+05,      /* I = 39 */
(PID.TID 0000.0001)                 2.597126963772147E+05,      /* I = 40 */
(PID.TID 0000.0001)                 2.691790288994575E+05,      /* I = 41 */
(PID.TID 0000.0001)                 2.773091043277394E+05,      /* I = 42 */
(PID.TID 0000.0001)                 2.841906470085516E+05,      /* I = 43 */
(PID.TID 0000.0001)                 2.898778860929753E+05,      /* I = 44 */
(PID.TID 0000.0001)                 2.944035815526416E+05,      /* I = 45 */
(PID.TID 0000.0001)                 2.977867909042096E+05,      /* I = 46 */
(PID.TID 0000.0001)                 3.000380090330854E+05,      /* I = 47 */
(PID.TID 0000.0001)     2 @  3.011625828699101E+05,             /* I = 48: 49 */
(PID.TID 0000.0001)                 3.000380090330854E+05,      /* I = 50 */
(PID.TID 0000.0001)                 2.977867909042096E+05,      /* I = 51 */
(PID.TID 0000.0001)                 2.944035815526416E+05,      /* I = 52 */
(PID.TID 0000.0001)                 2.898778860929753E+05,      /* I = 53 */
(PID.TID 0000.0001)                 2.841906470085516E+05,      /* I = 54 */
(PID.TID 0000.0001)                 2.773091043277394E+05,      /* I = 55 */
(PID.TID 0000.0001)                 2.691790288994575E+05,      /* I = 56 */
(PID.TID 0000.0001)                 2.597126963772147E+05,      /* I = 57 */
(PID.TID 0000.0001)                 2.487693460283865E+05,      /* I = 58 */
(PID.TID 0000.0001)                 2.361211699596122E+05,      /* I = 59 */
(PID.TID 0000.0001)                 2.213884732245467E+05,      /* I = 60 */
(PID.TID 0000.0001)                 2.038999045536999E+05,      /* I = 61 */
(PID.TID 0000.0001)                 1.823321598773926E+05,      /* I = 62 */
(PID.TID 0000.0001)                 1.534505834330338E+05,      /* I = 63 */
(PID.TID 0000.0001)     2 @  1.009837800879055E+05,             /* I = 64: 65 */
(PID.TID 0000.0001)                 1.534505834330338E+05,      /* I = 66 */
(PID.TID 0000.0001)                 1.823321598773926E+05,      /* I = 67 */
(PID.TID 0000.0001)                 2.038999045536999E+05,      /* I = 68 */
(PID.TID 0000.0001)                 2.213884732245467E+05,      /* I = 69 */
(PID.TID 0000.0001)                 2.361211699596122E+05,      /* I = 70 */
(PID.TID 0000.0001)                 2.487693460283865E+05,      /* I = 71 */
(PID.TID 0000.0001)                 2.597126963772147E+05,      /* I = 72 */
(PID.TID 0000.0001)                 2.691790288994575E+05,      /* I = 73 */
(PID.TID 0000.0001)                 2.773091043277394E+05,      /* I = 74 */
(PID.TID 0000.0001)                 2.841906470085516E+05,      /* I = 75 */
(PID.TID 0000.0001)                 2.898778860929753E+05,      /* I = 76 */
(PID.TID 0000.0001)                 2.944035815526416E+05,      /* I = 77 */
(PID.TID 0000.0001)                 2.977867909042096E+05,      /* I = 78 */
(PID.TID 0000.0001)                 3.000380090330854E+05,      /* I = 79 */
(PID.TID 0000.0001)     2 @  3.011625828699101E+05,             /* I = 80: 81 */
(PID.TID 0000.0001)                 3.000380090330854E+05,      /* I = 82 */
(PID.TID 0000.0001)                 2.977867909042096E+05,      /* I = 83 */
(PID.TID 0000.0001)                 2.944035815526416E+05,      /* I = 84 */
(PID.TID 0000.0001)                 2.898778860929753E+05,      /* I = 85 */
(PID.TID 0000.0001)                 2.841906470085516E+05,      /* I = 86 */
(PID.TID 0000.0001)                 2.773091043277394E+05,      /* I = 87 */
(PID.TID 0000.0001)                 2.691790288994575E+05,      /* I = 88 */
(PID.TID 0000.0001)                 2.597126963772147E+05,      /* I = 89 */
(PID.TID 0000.0001)                 2.487693460283865E+05,      /* I = 90 */
(PID.TID 0000.0001)                 2.361211699596122E+05,      /* I = 91 */
(PID.TID 0000.0001)                 2.213884732245467E+05,      /* I = 92 */
(PID.TID 0000.0001)                 2.038999045536999E+05,      /* I = 93 */
(PID.TID 0000.0001)                 1.823321598773926E+05,      /* I = 94 */
(PID.TID 0000.0001)                 1.534505834330338E+05,      /* I = 95 */
(PID.TID 0000.0001)     2 @  1.009837800879055E+05,             /* I = 96: 97 */
(PID.TID 0000.0001)                 1.534505834330338E+05,      /* I = 98 */
(PID.TID 0000.0001)                 1.823321598773926E+05,      /* I = 99 */
(PID.TID 0000.0001)                 2.038999045536999E+05,      /* I =100 */
(PID.TID 0000.0001)                 2.213884732245467E+05,      /* I =101 */
(PID.TID 0000.0001)                 2.361211699596122E+05,      /* I =102 */
(PID.TID 0000.0001)                 2.487693460283865E+05,      /* I =103 */
(PID.TID 0000.0001)                 2.597126963772147E+05,      /* I =104 */
(PID.TID 0000.0001)                 2.691790288994575E+05,      /* I =105 */
(PID.TID 0000.0001)                 2.773091043277394E+05,      /* I =106 */
(PID.TID 0000.0001)                 2.841906470085516E+05,      /* I =107 */
(PID.TID 0000.0001)                 2.898778860929753E+05,      /* I =108 */
(PID.TID 0000.0001)                 2.944035815526416E+05,      /* I =109 */
(PID.TID 0000.0001)                 2.977867909042096E+05,      /* I =110 */
(PID.TID 0000.0001)                 3.000380090330854E+05,      /* I =111 */
(PID.TID 0000.0001)     2 @  3.011625828699101E+05,             /* I =112:113 */
(PID.TID 0000.0001)                 3.000380090330854E+05,      /* I =114 */
(PID.TID 0000.0001)                 2.977867909042096E+05,      /* I =115 */
(PID.TID 0000.0001)                 2.944035815526416E+05,      /* I =116 */
(PID.TID 0000.0001)                 2.898778860929753E+05,      /* I =117 */
(PID.TID 0000.0001)                 2.841906470085516E+05,      /* I =118 */
(PID.TID 0000.0001)                 2.773091043277394E+05,      /* I =119 */
(PID.TID 0000.0001)                 2.691790288994575E+05,      /* I =120 */
(PID.TID 0000.0001)                 2.597126963772147E+05,      /* I =121 */
(PID.TID 0000.0001)                 2.487693460283865E+05,      /* I =122 */
(PID.TID 0000.0001)                 2.361211699596122E+05,      /* I =123 */
(PID.TID 0000.0001)                 2.213884732245467E+05,      /* I =124 */
(PID.TID 0000.0001)                 2.038999045536999E+05,      /* I =125 */
(PID.TID 0000.0001)                 1.823321598773926E+05,      /* I =126 */
(PID.TID 0000.0001)                 1.534505834330338E+05,      /* I =127 */
(PID.TID 0000.0001)     2 @  1.009837800879055E+05,             /* I =128:129 */
(PID.TID 0000.0001)                 1.534505834330338E+05,      /* I =130 */
(PID.TID 0000.0001)                 1.823321598773926E+05,      /* I =131 */
(PID.TID 0000.0001)                 2.038999045536999E+05,      /* I =132 */
(PID.TID 0000.0001)                 2.213884732245467E+05,      /* I =133 */
(PID.TID 0000.0001)                 2.361211699596122E+05,      /* I =134 */
(PID.TID 0000.0001)                 2.487693460283865E+05,      /* I =135 */
(PID.TID 0000.0001)                 2.597126963772147E+05,      /* I =136 */
(PID.TID 0000.0001)                 2.691790288994575E+05,      /* I =137 */
(PID.TID 0000.0001)                 2.773091043277394E+05,      /* I =138 */
(PID.TID 0000.0001)                 2.841906470085516E+05,      /* I =139 */
(PID.TID 0000.0001)                 2.898778860929753E+05,      /* I =140 */
(PID.TID 0000.0001)                 2.944035815526416E+05,      /* I =141 */
(PID.TID 0000.0001)                 2.977867909042096E+05,      /* I =142 */
(PID.TID 0000.0001)                 3.000380090330854E+05,      /* I =143 */
(PID.TID 0000.0001)     2 @  3.011625828699101E+05,             /* I =144:145 */
(PID.TID 0000.0001)                 3.000380090330854E+05,      /* I =146 */
(PID.TID 0000.0001)                 2.977867909042096E+05,      /* I =147 */
(PID.TID 0000.0001)                 2.944035815526416E+05,      /* I =148 */
(PID.TID 0000.0001)                 2.898778860929753E+05,      /* I =149 */
(PID.TID 0000.0001)                 2.841906470085516E+05,      /* I =150 */
(PID.TID 0000.0001)                 2.773091043277394E+05,      /* I =151 */
(PID.TID 0000.0001)                 2.691790288994575E+05,      /* I =152 */
(PID.TID 0000.0001)                 2.597126963772147E+05,      /* I =153 */
(PID.TID 0000.0001)                 2.487693460283865E+05,      /* I =154 */
(PID.TID 0000.0001)                 2.361211699596122E+05,      /* I =155 */
(PID.TID 0000.0001)                 2.213884732245467E+05,      /* I =156 */
(PID.TID 0000.0001)                 2.038999045536999E+05,      /* I =157 */
(PID.TID 0000.0001)                 1.823321598773926E+05,      /* I =158 */
(PID.TID 0000.0001)                 1.534505834330338E+05,      /* I =159 */
(PID.TID 0000.0001)     2 @  1.009837800879055E+05,             /* I =160:161 */
(PID.TID 0000.0001)                 1.534505834330338E+05,      /* I =162 */
(PID.TID 0000.0001)                 1.823321598773926E+05,      /* I =163 */
(PID.TID 0000.0001)                 2.038999045536999E+05,      /* I =164 */
(PID.TID 0000.0001)                 2.213884732245467E+05,      /* I =165 */
(PID.TID 0000.0001)                 2.361211699596122E+05,      /* I =166 */
(PID.TID 0000.0001)                 2.487693460283865E+05,      /* I =167 */
(PID.TID 0000.0001)                 2.597126963772147E+05,      /* I =168 */
(PID.TID 0000.0001)                 2.691790288994575E+05,      /* I =169 */
(PID.TID 0000.0001)                 2.773091043277394E+05,      /* I =170 */
(PID.TID 0000.0001)                 2.841906470085516E+05,      /* I =171 */
(PID.TID 0000.0001)                 2.898778860929753E+05,      /* I =172 */
(PID.TID 0000.0001)                 2.944035815526416E+05,      /* I =173 */
(PID.TID 0000.0001)                 2.977867909042096E+05,      /* I =174 */
(PID.TID 0000.0001)                 3.000380090330854E+05,      /* I =175 */
(PID.TID 0000.0001)     2 @  3.011625828699101E+05,             /* I =176:177 */
(PID.TID 0000.0001)                 3.000380090330854E+05,      /* I =178 */
(PID.TID 0000.0001)                 2.977867909042096E+05,      /* I =179 */
(PID.TID 0000.0001)                 2.944035815526416E+05,      /* I =180 */
(PID.TID 0000.0001)                 2.898778860929753E+05,      /* I =181 */
(PID.TID 0000.0001)                 2.841906470085516E+05,      /* I =182 */
(PID.TID 0000.0001)                 2.773091043277394E+05,      /* I =183 */
(PID.TID 0000.0001)                 2.691790288994575E+05,      /* I =184 */
(PID.TID 0000.0001)                 2.597126963772147E+05,      /* I =185 */
(PID.TID 0000.0001)                 2.487693460283865E+05,      /* I =186 */
(PID.TID 0000.0001)                 2.361211699596122E+05,      /* I =187 */
(PID.TID 0000.0001)                 2.213884732245467E+05,      /* I =188 */
(PID.TID 0000.0001)                 2.038999045536999E+05,      /* I =189 */
(PID.TID 0000.0001)                 1.823321598773926E+05,      /* I =190 */
(PID.TID 0000.0001)                 1.534505834330338E+05,      /* I =191 */
(PID.TID 0000.0001)                 1.009837800879055E+05       /* I =192 */
(PID.TID 0000.0001)     ;
(PID.TID 0000.0001) dxG =  /* dxG(1,:,1,:) ( m - cartesian, degrees - spherical ) */
(PID.TID 0000.0001)                 1.009837800879055E+05,      /* J =  1 */
(PID.TID 0000.0001)                 1.403701524205399E+05,      /* J =  2 */
(PID.TID 0000.0001)                 1.716197227386011E+05,      /* J =  3 */
(PID.TID 0000.0001)                 1.950254041626018E+05,      /* J =  4 */
(PID.TID 0000.0001)                 2.138410773065497E+05,      /* J =  5 */
(PID.TID 0000.0001)                 2.295958105911512E+05,      /* J =  6 */
(PID.TID 0000.0001)                 2.430829951739083E+05,      /* J =  7 */
(PID.TID 0000.0001)                 2.547526806712889E+05,      /* J =  8 */
(PID.TID 0000.0001)                 2.648750305193301E+05,      /* J =  9 */
(PID.TID 0000.0001)                 2.736173771018112E+05,      /* J = 10 */
(PID.TID 0000.0001)                 2.810845823202647E+05,      /* J = 11 */
(PID.TID 0000.0001)                 2.873420591008078E+05,      /* J = 12 */
(PID.TID 0000.0001)                 2.924298293668651E+05,      /* J = 13 */
(PID.TID 0000.0001)                 2.963715635865306E+05,      /* J = 14 */
(PID.TID 0000.0001)                 2.991805843171258E+05,      /* J = 15 */
(PID.TID 0000.0001)                 3.008638765647886E+05,      /* J = 16 */
(PID.TID 0000.0001)                 3.014246674484008E+05,      /* J = 17 */
(PID.TID 0000.0001)                 3.008638765647886E+05,      /* J = 18 */
(PID.TID 0000.0001)                 2.991805843171258E+05,      /* J = 19 */
(PID.TID 0000.0001)                 2.963715635865306E+05,      /* J = 20 */
(PID.TID 0000.0001)                 2.924298293668651E+05,      /* J = 21 */
(PID.TID 0000.0001)                 2.873420591008078E+05,      /* J = 22 */
(PID.TID 0000.0001)                 2.810845823202647E+05,      /* J = 23 */
(PID.TID 0000.0001)                 2.736173771018112E+05,      /* J = 24 */
(PID.TID 0000.0001)                 2.648750305193301E+05,      /* J = 25 */
(PID.TID 0000.0001)                 2.547526806712889E+05,      /* J = 26 */
(PID.TID 0000.0001)                 2.430829951739083E+05,      /* J = 27 */
(PID.TID 0000.0001)                 2.295958105911512E+05,      /* J = 28 */
(PID.TID 0000.0001)                 2.138410773065497E+05,      /* J = 29 */
(PID.TID 0000.0001)                 1.950254041626018E+05,      /* J = 30 */
(PID.TID 0000.0001)                 1.716197227386011E+05,      /* J = 31 */
(PID.TID 0000.0001)                 1.403701524205399E+05       /* J = 32 */
(PID.TID 0000.0001)     ;
(PID.TID 0000.0001) dyG =  /* dyG(:,1,:,1) ( m - cartesian, degrees - spherical ) */
(PID.TID 0000.0001)                 1.009837800879055E+05,      /* I =  1 */
(PID.TID 0000.0001)                 1.403701524205399E+05,      /* I =  2 */
(PID.TID 0000.0001)                 1.716197227386011E+05,      /* I =  3 */
(PID.TID 0000.0001)                 1.950254041626018E+05,      /* I =  4 */
(PID.TID 0000.0001)                 2.138410773065497E+05,      /* I =  5 */
(PID.TID 0000.0001)                 2.295958105911512E+05,      /* I =  6 */
(PID.TID 0000.0001)                 2.430829951739083E+05,      /* I =  7 */
(PID.TID 0000.0001)                 2.547526806712889E+05,      /* I =  8 */
(PID.TID 0000.0001)                 2.648750305193301E+05,      /* I =  9 */
(PID.TID 0000.0001)                 2.736173771018112E+05,      /* I = 10 */
(PID.TID 0000.0001)                 2.810845823202647E+05,      /* I = 11 */
(PID.TID 0000.0001)                 2.873420591008078E+05,      /* I = 12 */
(PID.TID 0000.0001)                 2.924298293668651E+05,      /* I = 13 */
(PID.TID 0000.0001)                 2.963715635865306E+05,      /* I = 14 */
(PID.TID 0000.0001)                 2.991805843171258E+05,      /* I = 15 */
(PID.TID 0000.0001)                 3.008638765647886E+05,      /* I = 16 */
(PID.TID 0000.0001)                 3.014246674484008E+05,      /* I = 17 */
(PID.TID 0000.0001)                 3.008638765647886E+05,      /* I = 18 */
(PID.TID 0000.0001)                 2.991805843171258E+05,      /* I = 19 */
(PID.TID 0000.0001)                 2.963715635865306E+05,      /* I = 20 */
(PID.TID 0000.0001)                 2.924298293668651E+05,      /* I = 21 */
(PID.TID 0000.0001)                 2.873420591008078E+05,      /* I = 22 */
(PID.TID 0000.0001)                 2.810845823202647E+05,      /* I = 23 */
(PID.TID 0000.0001)                 2.736173771018112E+05,      /* I = 24 */
(PID.TID 0000.0001)                 2.648750305193301E+05,      /* I = 25 */
(PID.TID 0000.0001)                 2.547526806712889E+05,      /* I = 26 */
(PID.TID 0000.0001)                 2.430829951739083E+05,      /* I = 27 */
(PID.TID 0000.0001)                 2.295958105911512E+05,      /* I = 28 */
(PID.TID 0000.0001)                 2.138410773065497E+05,      /* I = 29 */
(PID.TID 0000.0001)                 1.950254041626018E+05,      /* I = 30 */
(PID.TID 0000.0001)                 1.716197227386011E+05,      /* I = 31 */
(PID.TID 0000.0001)                 1.403701524205399E+05,      /* I = 32 */
(PID.TID 0000.0001)                 1.009837800879055E+05,      /* I = 33 */
(PID.TID 0000.0001)                 1.403701524205399E+05,      /* I = 34 */
(PID.TID 0000.0001)                 1.716197227386011E+05,      /* I = 35 */
(PID.TID 0000.0001)                 1.950254041626018E+05,      /* I = 36 */
(PID.TID 0000.0001)                 2.138410773065497E+05,      /* I = 37 */
(PID.TID 0000.0001)                 2.295958105911512E+05,      /* I = 38 */
(PID.TID 0000.0001)                 2.430829951739083E+05,      /* I = 39 */
(PID.TID 0000.0001)                 2.547526806712889E+05,      /* I = 40 */
(PID.TID 0000.0001)                 2.648750305193301E+05,      /* I = 41 */
(PID.TID 0000.0001)                 2.736173771018112E+05,      /* I = 42 */
(PID.TID 0000.0001)                 2.810845823202647E+05,      /* I = 43 */
(PID.TID 0000.0001)                 2.873420591008078E+05,      /* I = 44 */
(PID.TID 0000.0001)                 2.924298293668651E+05,      /* I = 45 */
(PID.TID 0000.0001)                 2.963715635865306E+05,      /* I = 46 */
(PID.TID 0000.0001)                 2.991805843171258E+05,      /* I = 47 */
(PID.TID 0000.0001)                 3.008638765647886E+05,      /* I = 48 */
(PID.TID 0000.0001)                 3.014246674484008E+05,      /* I = 49 */
(PID.TID 0000.0001)                 3.008638765647886E+05,      /* I = 50 */
(PID.TID 0000.0001)                 2.991805843171258E+05,      /* I = 51 */
(PID.TID 0000.0001)                 2.963715635865306E+05,      /* I = 52 */
(PID.TID 0000.0001)                 2.924298293668651E+05,      /* I = 53 */
(PID.TID 0000.0001)                 2.873420591008078E+05,      /* I = 54 */
(PID.TID 0000.0001)                 2.810845823202647E+05,      /* I = 55 */
(PID.TID 0000.0001)                 2.736173771018112E+05,      /* I = 56 */
(PID.TID 0000.0001)                 2.648750305193301E+05,      /* I = 57 */
(PID.TID 0000.0001)                 2.547526806712889E+05,      /* I = 58 */
(PID.TID 0000.0001)                 2.430829951739083E+05,      /* I = 59 */
(PID.TID 0000.0001)                 2.295958105911512E+05,      /* I = 60 */
(PID.TID 0000.0001)                 2.138410773065497E+05,      /* I = 61 */
(PID.TID 0000.0001)                 1.950254041626018E+05,      /* I = 62 */
(PID.TID 0000.0001)                 1.716197227386011E+05,      /* I = 63 */
(PID.TID 0000.0001)                 1.403701524205399E+05,      /* I = 64 */
(PID.TID 0000.0001)                 1.009837800879055E+05,      /* I = 65 */
(PID.TID 0000.0001)                 1.403701524205399E+05,      /* I = 66 */
(PID.TID 0000.0001)                 1.716197227386011E+05,      /* I = 67 */
(PID.TID 0000.0001)                 1.950254041626018E+05,      /* I = 68 */
(PID.TID 0000.0001)                 2.138410773065497E+05,      /* I = 69 */
(PID.TID 0000.0001)                 2.295958105911512E+05,      /* I = 70 */
(PID.TID 0000.0001)                 2.430829951739083E+05,      /* I = 71 */
(PID.TID 0000.0001)                 2.547526806712889E+05,      /* I = 72 */
(PID.TID 0000.0001)                 2.648750305193301E+05,      /* I = 73 */
(PID.TID 0000.0001)                 2.736173771018112E+05,      /* I = 74 */
(PID.TID 0000.0001)                 2.810845823202647E+05,      /* I = 75 */
(PID.TID 0000.0001)                 2.873420591008078E+05,      /* I = 76 */
(PID.TID 0000.0001)                 2.924298293668651E+05,      /* I = 77 */
(PID.TID 0000.0001)                 2.963715635865306E+05,      /* I = 78 */
(PID.TID 0000.0001)                 2.991805843171258E+05,      /* I = 79 */
(PID.TID 0000.0001)                 3.008638765647886E+05,      /* I = 80 */
(PID.TID 0000.0001)                 3.014246674484008E+05,      /* I = 81 */
(PID.TID 0000.0001)                 3.008638765647886E+05,      /* I = 82 */
(PID.TID 0000.0001)                 2.991805843171258E+05,      /* I = 83 */
(PID.TID 0000.0001)                 2.963715635865306E+05,      /* I = 84 */
(PID.TID 0000.0001)                 2.924298293668651E+05,      /* I = 85 */
(PID.TID 0000.0001)                 2.873420591008078E+05,      /* I = 86 */
(PID.TID 0000.0001)                 2.810845823202647E+05,      /* I = 87 */
(PID.TID 0000.0001)                 2.736173771018112E+05,      /* I = 88 */
(PID.TID 0000.0001)                 2.648750305193301E+05,      /* I = 89 */
(PID.TID 0000.0001)                 2.547526806712889E+05,      /* I = 90 */
(PID.TID 0000.0001)                 2.430829951739083E+05,      /* I = 91 */
(PID.TID 0000.0001)                 2.295958105911512E+05,      /* I = 92 */
(PID.TID 0000.0001)                 2.138410773065497E+05,      /* I = 93 */
(PID.TID 0000.0001)                 1.950254041626018E+05,      /* I = 94 */
(PID.TID 0000.0001)                 1.716197227386011E+05,      /* I = 95 */
(PID.TID 0000.0001)                 1.403701524205399E+05,      /* I = 96 */
(PID.TID 0000.0001)                 1.009837800879055E+05,      /* I = 97 */
(PID.TID 0000.0001)                 1.403701524205399E+05,      /* I = 98 */
(PID.TID 0000.0001)                 1.716197227386011E+05,      /* I = 99 */
(PID.TID 0000.0001)                 1.950254041626018E+05,      /* I =100 */
(PID.TID 0000.0001)                 2.138410773065497E+05,      /* I =101 */
(PID.TID 0000.0001)                 2.295958105911512E+05,      /* I =102 */
(PID.TID 0000.0001)                 2.430829951739083E+05,      /* I =103 */
(PID.TID 0000.0001)                 2.547526806712889E+05,      /* I =104 */
(PID.TID 0000.0001)                 2.648750305193301E+05,      /* I =105 */
(PID.TID 0000.0001)                 2.736173771018112E+05,      /* I =106 */
(PID.TID 0000.0001)                 2.810845823202647E+05,      /* I =107 */
(PID.TID 0000.0001)                 2.873420591008078E+05,      /* I =108 */
(PID.TID 0000.0001)                 2.924298293668651E+05,      /* I =109 */
(PID.TID 0000.0001)                 2.963715635865306E+05,      /* I =110 */
(PID.TID 0000.0001)                 2.991805843171258E+05,      /* I =111 */
(PID.TID 0000.0001)                 3.008638765647886E+05,      /* I =112 */
(PID.TID 0000.0001)                 3.014246674484008E+05,      /* I =113 */
(PID.TID 0000.0001)                 3.008638765647886E+05,      /* I =114 */
(PID.TID 0000.0001)                 2.991805843171258E+05,      /* I =115 */
(PID.TID 0000.0001)                 2.963715635865306E+05,      /* I =116 */
(PID.TID 0000.0001)                 2.924298293668651E+05,      /* I =117 */
(PID.TID 0000.0001)                 2.873420591008078E+05,      /* I =118 */
(PID.TID 0000.0001)                 2.810845823202647E+05,      /* I =119 */
(PID.TID 0000.0001)                 2.736173771018112E+05,      /* I =120 */
(PID.TID 0000.0001)                 2.648750305193301E+05,      /* I =121 */
(PID.TID 0000.0001)                 2.547526806712889E+05,      /* I =122 */
(PID.TID 0000.0001)                 2.430829951739083E+05,      /* I =123 */
(PID.TID 0000.0001)                 2.295958105911512E+05,      /* I =124 */
(PID.TID 0000.0001)                 2.138410773065497E+05,      /* I =125 */
(PID.TID 0000.0001)                 1.950254041626018E+05,      /* I =126 */
(PID.TID 0000.0001)                 1.716197227386011E+05,      /* I =127 */
(PID.TID 0000.0001)                 1.403701524205399E+05,      /* I =128 */
(PID.TID 0000.0001)                 1.009837800879055E+05,      /* I =129 */
(PID.TID 0000.0001)                 1.403701524205399E+05,      /* I =130 */
(PID.TID 0000.0001)                 1.716197227386011E+05,      /* I =131 */
(PID.TID 0000.0001)                 1.950254041626018E+05,      /* I =132 */
(PID.TID 0000.0001)                 2.138410773065497E+05,      /* I =133 */
(PID.TID 0000.0001)                 2.295958105911512E+05,      /* I =134 */
(PID.TID 0000.0001)                 2.430829951739083E+05,      /* I =135 */
(PID.TID 0000.0001)                 2.547526806712889E+05,      /* I =136 */
(PID.TID 0000.0001)                 2.648750305193301E+05,      /* I =137 */
(PID.TID 0000.0001)                 2.736173771018112E+05,      /* I =138 */
(PID.TID 0000.0001)                 2.810845823202647E+05,      /* I =139 */
(PID.TID 0000.0001)                 2.873420591008078E+05,      /* I =140 */
(PID.TID 0000.0001)                 2.924298293668651E+05,      /* I =141 */
(PID.TID 0000.0001)                 2.963715635865306E+05,      /* I =142 */
(PID.TID 0000.0001)                 2.991805843171258E+05,      /* I =143 */
(PID.TID 0000.0001)                 3.008638765647886E+05,      /* I =144 */
(PID.TID 0000.0001)                 3.014246674484008E+05,      /* I =145 */
(PID.TID 0000.0001)                 3.008638765647886E+05,      /* I =146 */
(PID.TID 0000.0001)                 2.991805843171258E+05,      /* I =147 */
(PID.TID 0000.0001)                 2.963715635865306E+05,      /* I =148 */
(PID.TID 0000.0001)                 2.924298293668651E+05,      /* I =149 */
(PID.TID 0000.0001)                 2.873420591008078E+05,      /* I =150 */
(PID.TID 0000.0001)                 2.810845823202647E+05,      /* I =151 */
(PID.TID 0000.0001)                 2.736173771018112E+05,      /* I =152 */
(PID.TID 0000.0001)                 2.648750305193301E+05,      /* I =153 */
(PID.TID 0000.0001)                 2.547526806712889E+05,      /* I =154 */
(PID.TID 0000.0001)                 2.430829951739083E+05,      /* I =155 */
(PID.TID 0000.0001)                 2.295958105911512E+05,      /* I =156 */
(PID.TID 0000.0001)                 2.138410773065497E+05,      /* I =157 */
(PID.TID 0000.0001)                 1.950254041626018E+05,      /* I =158 */
(PID.TID 0000.0001)                 1.716197227386011E+05,      /* I =159 */
(PID.TID 0000.0001)                 1.403701524205399E+05,      /* I =160 */
(PID.TID 0000.0001)                 1.009837800879055E+05,      /* I =161 */
(PID.TID 0000.0001)                 1.403701524205399E+05,      /* I =162 */
(PID.TID 0000.0001)                 1.716197227386011E+05,      /* I =163 */
(PID.TID 0000.0001)                 1.950254041626018E+05,      /* I =164 */
(PID.TID 0000.0001)                 2.138410773065497E+05,      /* I =165 */
(PID.TID 0000.0001)                 2.295958105911512E+05,      /* I =166 */
(PID.TID 0000.0001)                 2.430829951739083E+05,      /* I =167 */
(PID.TID 0000.0001)                 2.547526806712889E+05,      /* I =168 */
(PID.TID 0000.0001)                 2.648750305193301E+05,      /* I =169 */
(PID.TID 0000.0001)                 2.736173771018112E+05,      /* I =170 */
(PID.TID 0000.0001)                 2.810845823202647E+05,      /* I =171 */
(PID.TID 0000.0001)                 2.873420591008078E+05,      /* I =172 */
(PID.TID 0000.0001)                 2.924298293668651E+05,      /* I =173 */
(PID.TID 0000.0001)                 2.963715635865306E+05,      /* I =174 */
(PID.TID 0000.0001)                 2.991805843171258E+05,      /* I =175 */
(PID.TID 0000.0001)                 3.008638765647886E+05,      /* I =176 */
(PID.TID 0000.0001)                 3.014246674484008E+05,      /* I =177 */
(PID.TID 0000.0001)                 3.008638765647886E+05,      /* I =178 */
(PID.TID 0000.0001)                 2.991805843171258E+05,      /* I =179 */
(PID.TID 0000.0001)                 2.963715635865306E+05,      /* I =180 */
(PID.TID 0000.0001)                 2.924298293668651E+05,      /* I =181 */
(PID.TID 0000.0001)                 2.873420591008078E+05,      /* I =182 */
(PID.TID 0000.0001)                 2.810845823202647E+05,      /* I =183 */
(PID.TID 0000.0001)                 2.736173771018112E+05,      /* I =184 */
(PID.TID 0000.0001)                 2.648750305193301E+05,      /* I =185 */
(PID.TID 0000.0001)                 2.547526806712889E+05,      /* I =186 */
(PID.TID 0000.0001)                 2.430829951739083E+05,      /* I =187 */
(PID.TID 0000.0001)                 2.295958105911512E+05,      /* I =188 */
(PID.TID 0000.0001)                 2.138410773065497E+05,      /* I =189 */
(PID.TID 0000.0001)                 1.950254041626018E+05,      /* I =190 */
(PID.TID 0000.0001)                 1.716197227386011E+05,      /* I =191 */
(PID.TID 0000.0001)                 1.403701524205399E+05       /* I =192 */
(PID.TID 0000.0001)     ;
(PID.TID 0000.0001) dyG =  /* dyG(1,:,1,:) ( m - cartesian, degrees - spherical ) */
(PID.TID 0000.0001)                 1.009837800879055E+05,      /* J =  1 */
(PID.TID 0000.0001)                 1.534505834330338E+05,      /* J =  2 */
(PID.TID 0000.0001)                 1.823321598773926E+05,      /* J =  3 */
(PID.TID 0000.0001)                 2.038999045536999E+05,      /* J =  4 */
(PID.TID 0000.0001)                 2.213884732245467E+05,      /* J =  5 */
(PID.TID 0000.0001)                 2.361211699596122E+05,      /* J =  6 */
(PID.TID 0000.0001)                 2.487693460283865E+05,      /* J =  7 */
(PID.TID 0000.0001)                 2.597126963772147E+05,      /* J =  8 */
(PID.TID 0000.0001)                 2.691790288994575E+05,      /* J =  9 */
(PID.TID 0000.0001)                 2.773091043277394E+05,      /* J = 10 */
(PID.TID 0000.0001)                 2.841906470085516E+05,      /* J = 11 */
(PID.TID 0000.0001)                 2.898778860929753E+05,      /* J = 12 */
(PID.TID 0000.0001)                 2.944035815526416E+05,      /* J = 13 */
(PID.TID 0000.0001)                 2.977867909042096E+05,      /* J = 14 */
(PID.TID 0000.0001)                 3.000380090330854E+05,      /* J = 15 */
(PID.TID 0000.0001)     2 @  3.011625828699101E+05,             /* J = 16: 17 */
(PID.TID 0000.0001)                 3.000380090330854E+05,      /* J = 18 */
(PID.TID 0000.0001)                 2.977867909042096E+05,      /* J = 19 */
(PID.TID 0000.0001)                 2.944035815526416E+05,      /* J = 20 */
(PID.TID 0000.0001)                 2.898778860929753E+05,      /* J = 21 */
(PID.TID 0000.0001)                 2.841906470085516E+05,      /* J = 22 */
(PID.TID 0000.0001)                 2.773091043277394E+05,      /* J = 23 */
(PID.TID 0000.0001)                 2.691790288994575E+05,      /* J = 24 */
(PID.TID 0000.0001)                 2.597126963772147E+05,      /* J = 25 */
(PID.TID 0000.0001)                 2.487693460283865E+05,      /* J = 26 */
(PID.TID 0000.0001)                 2.361211699596122E+05,      /* J = 27 */
(PID.TID 0000.0001)                 2.213884732245467E+05,      /* J = 28 */
(PID.TID 0000.0001)                 2.038999045536999E+05,      /* J = 29 */
(PID.TID 0000.0001)                 1.823321598773926E+05,      /* J = 30 */
(PID.TID 0000.0001)                 1.534505834330338E+05,      /* J = 31 */
(PID.TID 0000.0001)                 1.009837800879055E+05       /* J = 32 */
(PID.TID 0000.0001)     ;
(PID.TID 0000.0001) dxC =  /* dxC(:,1,:,1) ( m - cartesian, degrees - spherical ) */
(PID.TID 0000.0001)                 1.114203141013064E+05,      /* I =  1 */
(PID.TID 0000.0001)                 1.391343389937106E+05,      /* I =  2 */
(PID.TID 0000.0001)                 1.709574999026267E+05,      /* I =  3 */
(PID.TID 0000.0001)                 1.946503699269892E+05,      /* I =  4 */
(PID.TID 0000.0001)                 2.135964483342134E+05,      /* I =  5 */
(PID.TID 0000.0001)                 2.294195678257306E+05,      /* I =  6 */
(PID.TID 0000.0001)                 2.429464709770498E+05,      /* I =  7 */
(PID.TID 0000.0001)                 2.546408290696998E+05,      /* I =  8 */
(PID.TID 0000.0001)                 2.647791839299727E+05,      /* I =  9 */
(PID.TID 0000.0001)                 2.735321911346108E+05,      /* I = 10 */
(PID.TID 0000.0001)                 2.810065951609633E+05,      /* I = 11 */
(PID.TID 0000.0001)                 2.872689479506990E+05,      /* I = 12 */
(PID.TID 0000.0001)                 2.923599955312932E+05,      /* I = 13 */
(PID.TID 0000.0001)                 2.963038832565530E+05,      /* I = 14 */
(PID.TID 0000.0001)                 2.991142470004740E+05,      /* I = 15 */
(PID.TID 0000.0001)                 3.007982711627968E+05,      /* I = 16 */
(PID.TID 0000.0001)                 3.013593857228136E+05,      /* I = 17 */
(PID.TID 0000.0001)                 3.007982711627968E+05,      /* I = 18 */
(PID.TID 0000.0001)                 2.991142470004740E+05,      /* I = 19 */
(PID.TID 0000.0001)                 2.963038832565530E+05,      /* I = 20 */
(PID.TID 0000.0001)                 2.923599955312932E+05,      /* I = 21 */
(PID.TID 0000.0001)                 2.872689479506990E+05,      /* I = 22 */
(PID.TID 0000.0001)                 2.810065951609633E+05,      /* I = 23 */
(PID.TID 0000.0001)                 2.735321911346108E+05,      /* I = 24 */
(PID.TID 0000.0001)                 2.647791839299727E+05,      /* I = 25 */
(PID.TID 0000.0001)                 2.546408290696998E+05,      /* I = 26 */
(PID.TID 0000.0001)                 2.429464709770498E+05,      /* I = 27 */
(PID.TID 0000.0001)                 2.294195678257306E+05,      /* I = 28 */
(PID.TID 0000.0001)                 2.135964483342134E+05,      /* I = 29 */
(PID.TID 0000.0001)                 1.946503699269892E+05,      /* I = 30 */
(PID.TID 0000.0001)                 1.709574999026267E+05,      /* I = 31 */
(PID.TID 0000.0001)                 1.391343389937106E+05,      /* I = 32 */
(PID.TID 0000.0001)                 1.114203141013064E+05,      /* I = 33 */
(PID.TID 0000.0001)                 1.391343389937106E+05,      /* I = 34 */
(PID.TID 0000.0001)                 1.709574999026267E+05,      /* I = 35 */
(PID.TID 0000.0001)                 1.946503699269892E+05,      /* I = 36 */
(PID.TID 0000.0001)                 2.135964483342134E+05,      /* I = 37 */
(PID.TID 0000.0001)                 2.294195678257306E+05,      /* I = 38 */
(PID.TID 0000.0001)                 2.429464709770498E+05,      /* I = 39 */
(PID.TID 0000.0001)                 2.546408290696998E+05,      /* I = 40 */
(PID.TID 0000.0001)                 2.647791839299727E+05,      /* I = 41 */
(PID.TID 0000.0001)                 2.735321911346108E+05,      /* I = 42 */
(PID.TID 0000.0001)                 2.810065951609633E+05,      /* I = 43 */
(PID.TID 0000.0001)                 2.872689479506990E+05,      /* I = 44 */
(PID.TID 0000.0001)                 2.923599955312932E+05,      /* I = 45 */
(PID.TID 0000.0001)                 2.963038832565530E+05,      /* I = 46 */
(PID.TID 0000.0001)                 2.991142470004740E+05,      /* I = 47 */
(PID.TID 0000.0001)                 3.007982711627968E+05,      /* I = 48 */
(PID.TID 0000.0001)                 3.013593857228136E+05,      /* I = 49 */
(PID.TID 0000.0001)                 3.007982711627968E+05,      /* I = 50 */
(PID.TID 0000.0001)                 2.991142470004740E+05,      /* I = 51 */
(PID.TID 0000.0001)                 2.963038832565530E+05,      /* I = 52 */
(PID.TID 0000.0001)                 2.923599955312932E+05,      /* I = 53 */
(PID.TID 0000.0001)                 2.872689479506990E+05,      /* I = 54 */
(PID.TID 0000.0001)                 2.810065951609633E+05,      /* I = 55 */
(PID.TID 0000.0001)                 2.735321911346108E+05,      /* I = 56 */
(PID.TID 0000.0001)                 2.647791839299727E+05,      /* I = 57 */
(PID.TID 0000.0001)                 2.546408290696998E+05,      /* I = 58 */
(PID.TID 0000.0001)                 2.429464709770498E+05,      /* I = 59 */
(PID.TID 0000.0001)                 2.294195678257306E+05,      /* I = 60 */
(PID.TID 0000.0001)                 2.135964483342134E+05,      /* I = 61 */
(PID.TID 0000.0001)                 1.946503699269892E+05,      /* I = 62 */
(PID.TID 0000.0001)                 1.709574999026267E+05,      /* I = 63 */
(PID.TID 0000.0001)                 1.391343389937106E+05,      /* I = 64 */
(PID.TID 0000.0001)                 1.114203141013064E+05,      /* I = 65 */
(PID.TID 0000.0001)                 1.391343389937106E+05,      /* I = 66 */
(PID.TID 0000.0001)                 1.709574999026267E+05,      /* I = 67 */
(PID.TID 0000.0001)                 1.946503699269892E+05,      /* I = 68 */
(PID.TID 0000.0001)                 2.135964483342134E+05,      /* I = 69 */
(PID.TID 0000.0001)                 2.294195678257306E+05,      /* I = 70 */
(PID.TID 0000.0001)                 2.429464709770498E+05,      /* I = 71 */
(PID.TID 0000.0001)                 2.546408290696998E+05,      /* I = 72 */
(PID.TID 0000.0001)                 2.647791839299727E+05,      /* I = 73 */
(PID.TID 0000.0001)                 2.735321911346108E+05,      /* I = 74 */
(PID.TID 0000.0001)                 2.810065951609633E+05,      /* I = 75 */
(PID.TID 0000.0001)                 2.872689479506990E+05,      /* I = 76 */
(PID.TID 0000.0001)                 2.923599955312932E+05,      /* I = 77 */
(PID.TID 0000.0001)                 2.963038832565530E+05,      /* I = 78 */
(PID.TID 0000.0001)                 2.991142470004740E+05,      /* I = 79 */
(PID.TID 0000.0001)                 3.007982711627968E+05,      /* I = 80 */
(PID.TID 0000.0001)                 3.013593857228136E+05,      /* I = 81 */
(PID.TID 0000.0001)                 3.007982711627968E+05,      /* I = 82 */
(PID.TID 0000.0001)                 2.991142470004740E+05,      /* I = 83 */
(PID.TID 0000.0001)                 2.963038832565530E+05,      /* I = 84 */
(PID.TID 0000.0001)                 2.923599955312932E+05,      /* I = 85 */
(PID.TID 0000.0001)                 2.872689479506990E+05,      /* I = 86 */
(PID.TID 0000.0001)                 2.810065951609633E+05,      /* I = 87 */
(PID.TID 0000.0001)                 2.735321911346108E+05,      /* I = 88 */
(PID.TID 0000.0001)                 2.647791839299727E+05,      /* I = 89 */
(PID.TID 0000.0001)                 2.546408290696998E+05,      /* I = 90 */
(PID.TID 0000.0001)                 2.429464709770498E+05,      /* I = 91 */
(PID.TID 0000.0001)                 2.294195678257306E+05,      /* I = 92 */
(PID.TID 0000.0001)                 2.135964483342134E+05,      /* I = 93 */
(PID.TID 0000.0001)                 1.946503699269892E+05,      /* I = 94 */
(PID.TID 0000.0001)                 1.709574999026267E+05,      /* I = 95 */
(PID.TID 0000.0001)                 1.391343389937106E+05,      /* I = 96 */
(PID.TID 0000.0001)                 1.114203141013064E+05,      /* I = 97 */
(PID.TID 0000.0001)                 1.391343389937106E+05,      /* I = 98 */
(PID.TID 0000.0001)                 1.709574999026267E+05,      /* I = 99 */
(PID.TID 0000.0001)                 1.946503699269892E+05,      /* I =100 */
(PID.TID 0000.0001)                 2.135964483342134E+05,      /* I =101 */
(PID.TID 0000.0001)                 2.294195678257306E+05,      /* I =102 */
(PID.TID 0000.0001)                 2.429464709770498E+05,      /* I =103 */
(PID.TID 0000.0001)                 2.546408290696998E+05,      /* I =104 */
(PID.TID 0000.0001)                 2.647791839299727E+05,      /* I =105 */
(PID.TID 0000.0001)                 2.735321911346108E+05,      /* I =106 */
(PID.TID 0000.0001)                 2.810065951609633E+05,      /* I =107 */
(PID.TID 0000.0001)                 2.872689479506990E+05,      /* I =108 */
(PID.TID 0000.0001)                 2.923599955312932E+05,      /* I =109 */
(PID.TID 0000.0001)                 2.963038832565530E+05,      /* I =110 */
(PID.TID 0000.0001)                 2.991142470004740E+05,      /* I =111 */
(PID.TID 0000.0001)                 3.007982711627968E+05,      /* I =112 */
(PID.TID 0000.0001)                 3.013593857228136E+05,      /* I =113 */
(PID.TID 0000.0001)                 3.007982711627968E+05,      /* I =114 */
(PID.TID 0000.0001)                 2.991142470004740E+05,      /* I =115 */
(PID.TID 0000.0001)                 2.963038832565530E+05,      /* I =116 */
(PID.TID 0000.0001)                 2.923599955312932E+05,      /* I =117 */
(PID.TID 0000.0001)                 2.872689479506990E+05,      /* I =118 */
(PID.TID 0000.0001)                 2.810065951609633E+05,      /* I =119 */
(PID.TID 0000.0001)                 2.735321911346108E+05,      /* I =120 */
(PID.TID 0000.0001)                 2.647791839299727E+05,      /* I =121 */
(PID.TID 0000.0001)                 2.546408290696998E+05,      /* I =122 */
(PID.TID 0000.0001)                 2.429464709770498E+05,      /* I =123 */
(PID.TID 0000.0001)                 2.294195678257306E+05,      /* I =124 */
(PID.TID 0000.0001)                 2.135964483342134E+05,      /* I =125 */
(PID.TID 0000.0001)                 1.946503699269892E+05,      /* I =126 */
(PID.TID 0000.0001)                 1.709574999026267E+05,      /* I =127 */
(PID.TID 0000.0001)                 1.391343389937106E+05,      /* I =128 */
(PID.TID 0000.0001)                 1.114203141013064E+05,      /* I =129 */
(PID.TID 0000.0001)                 1.391343389937106E+05,      /* I =130 */
(PID.TID 0000.0001)                 1.709574999026267E+05,      /* I =131 */
(PID.TID 0000.0001)                 1.946503699269892E+05,      /* I =132 */
(PID.TID 0000.0001)                 2.135964483342134E+05,      /* I =133 */
(PID.TID 0000.0001)                 2.294195678257306E+05,      /* I =134 */
(PID.TID 0000.0001)                 2.429464709770498E+05,      /* I =135 */
(PID.TID 0000.0001)                 2.546408290696998E+05,      /* I =136 */
(PID.TID 0000.0001)                 2.647791839299727E+05,      /* I =137 */
(PID.TID 0000.0001)                 2.735321911346108E+05,      /* I =138 */
(PID.TID 0000.0001)                 2.810065951609633E+05,      /* I =139 */
(PID.TID 0000.0001)                 2.872689479506990E+05,      /* I =140 */
(PID.TID 0000.0001)                 2.923599955312932E+05,      /* I =141 */
(PID.TID 0000.0001)                 2.963038832565530E+05,      /* I =142 */
(PID.TID 0000.0001)                 2.991142470004740E+05,      /* I =143 */
(PID.TID 0000.0001)                 3.007982711627968E+05,      /* I =144 */
(PID.TID 0000.0001)                 3.013593857228136E+05,      /* I =145 */
(PID.TID 0000.0001)                 3.007982711627968E+05,      /* I =146 */
(PID.TID 0000.0001)                 2.991142470004740E+05,      /* I =147 */
(PID.TID 0000.0001)                 2.963038832565530E+05,      /* I =148 */
(PID.TID 0000.0001)                 2.923599955312932E+05,      /* I =149 */
(PID.TID 0000.0001)                 2.872689479506990E+05,      /* I =150 */
(PID.TID 0000.0001)                 2.810065951609633E+05,      /* I =151 */
(PID.TID 0000.0001)                 2.735321911346108E+05,      /* I =152 */
(PID.TID 0000.0001)                 2.647791839299727E+05,      /* I =153 */
(PID.TID 0000.0001)                 2.546408290696998E+05,      /* I =154 */
(PID.TID 0000.0001)                 2.429464709770498E+05,      /* I =155 */
(PID.TID 0000.0001)                 2.294195678257306E+05,      /* I =156 */
(PID.TID 0000.0001)                 2.135964483342134E+05,      /* I =157 */
(PID.TID 0000.0001)                 1.946503699269892E+05,      /* I =158 */
(PID.TID 0000.0001)                 1.709574999026267E+05,      /* I =159 */
(PID.TID 0000.0001)                 1.391343389937106E+05,      /* I =160 */
(PID.TID 0000.0001)                 1.114203141013064E+05,      /* I =161 */
(PID.TID 0000.0001)                 1.391343389937106E+05,      /* I =162 */
(PID.TID 0000.0001)                 1.709574999026267E+05,      /* I =163 */
(PID.TID 0000.0001)                 1.946503699269892E+05,      /* I =164 */
(PID.TID 0000.0001)                 2.135964483342134E+05,      /* I =165 */
(PID.TID 0000.0001)                 2.294195678257306E+05,      /* I =166 */
(PID.TID 0000.0001)                 2.429464709770498E+05,      /* I =167 */
(PID.TID 0000.0001)                 2.546408290696998E+05,      /* I =168 */
(PID.TID 0000.0001)                 2.647791839299727E+05,      /* I =169 */
(PID.TID 0000.0001)                 2.735321911346108E+05,      /* I =170 */
(PID.TID 0000.0001)                 2.810065951609633E+05,      /* I =171 */
(PID.TID 0000.0001)                 2.872689479506990E+05,      /* I =172 */
(PID.TID 0000.0001)                 2.923599955312932E+05,      /* I =173 */
(PID.TID 0000.0001)                 2.963038832565530E+05,      /* I =174 */
(PID.TID 0000.0001)                 2.991142470004740E+05,      /* I =175 */
(PID.TID 0000.0001)                 3.007982711627968E+05,      /* I =176 */
(PID.TID 0000.0001)                 3.013593857228136E+05,      /* I =177 */
(PID.TID 0000.0001)                 3.007982711627968E+05,      /* I =178 */
(PID.TID 0000.0001)                 2.991142470004740E+05,      /* I =179 */
(PID.TID 0000.0001)                 2.963038832565530E+05,      /* I =180 */
(PID.TID 0000.0001)                 2.923599955312932E+05,      /* I =181 */
(PID.TID 0000.0001)                 2.872689479506990E+05,      /* I =182 */
(PID.TID 0000.0001)                 2.810065951609633E+05,      /* I =183 */
(PID.TID 0000.0001)                 2.735321911346108E+05,      /* I =184 */
(PID.TID 0000.0001)                 2.647791839299727E+05,      /* I =185 */
(PID.TID 0000.0001)                 2.546408290696998E+05,      /* I =186 */
(PID.TID 0000.0001)                 2.429464709770498E+05,      /* I =187 */
(PID.TID 0000.0001)                 2.294195678257306E+05,      /* I =188 */
(PID.TID 0000.0001)                 2.135964483342134E+05,      /* I =189 */
(PID.TID 0000.0001)                 1.946503699269892E+05,      /* I =190 */
(PID.TID 0000.0001)                 1.709574999026267E+05,      /* I =191 */
(PID.TID 0000.0001)                 1.391343389937106E+05       /* I =192 */
(PID.TID 0000.0001)     ;
(PID.TID 0000.0001) dxC =  /* dxC(1,:,1,:) ( m - cartesian, degrees - spherical ) */
(PID.TID 0000.0001)                 1.114203141013064E+05,      /* J =  1 */
(PID.TID 0000.0001)                 1.549545757850771E+05,      /* J =  2 */
(PID.TID 0000.0001)                 1.829777599966776E+05,      /* J =  3 */
(PID.TID 0000.0001)                 2.042717761866506E+05,      /* J =  4 */
(PID.TID 0000.0001)                 2.216367828252819E+05,      /* J =  5 */
(PID.TID 0000.0001)                 2.363029564123586E+05,      /* J =  6 */
(PID.TID 0000.0001)                 2.489113743322025E+05,      /* J =  7 */
(PID.TID 0000.0001)                 2.598293319150326E+05,      /* J =  8 */
(PID.TID 0000.0001)                 2.692787333338535E+05,      /* J =  9 */
(PID.TID 0000.0001)                 2.773972106720365E+05,      /* J = 10 */
(PID.TID 0000.0001)                 2.842706922224558E+05,      /* J = 11 */
(PID.TID 0000.0001)                 2.899523122489404E+05,      /* J = 12 */
(PID.TID 0000.0001)                 2.944741346384699E+05,      /* J = 13 */
(PID.TID 0000.0001)                 2.978547649292580E+05,      /* J = 14 */
(PID.TID 0000.0001)                 3.001044073506459E+05,      /* J = 15 */
(PID.TID 0000.0001)     2 @  3.012281885409289E+05,             /* J = 16: 17 */
(PID.TID 0000.0001)                 3.001044073506459E+05,      /* J = 18 */
(PID.TID 0000.0001)                 2.978547649292580E+05,      /* J = 19 */
(PID.TID 0000.0001)                 2.944741346384699E+05,      /* J = 20 */
(PID.TID 0000.0001)                 2.899523122489404E+05,      /* J = 21 */
(PID.TID 0000.0001)                 2.842706922224558E+05,      /* J = 22 */
(PID.TID 0000.0001)                 2.773972106720365E+05,      /* J = 23 */
(PID.TID 0000.0001)                 2.692787333338535E+05,      /* J = 24 */
(PID.TID 0000.0001)                 2.598293319150326E+05,      /* J = 25 */
(PID.TID 0000.0001)                 2.489113743322025E+05,      /* J = 26 */
(PID.TID 0000.0001)                 2.363029564123586E+05,      /* J = 27 */
(PID.TID 0000.0001)                 2.216367828252819E+05,      /* J = 28 */
(PID.TID 0000.0001)                 2.042717761866506E+05,      /* J = 29 */
(PID.TID 0000.0001)                 1.829777599966776E+05,      /* J = 30 */
(PID.TID 0000.0001)                 1.549545757850771E+05,      /* J = 31 */
(PID.TID 0000.0001)                 1.114203141013064E+05       /* J = 32 */
(PID.TID 0000.0001)     ;
(PID.TID 0000.0001) dyC =  /* dyC(:,1,:,1) ( m - cartesian, degrees - spherical ) */
(PID.TID 0000.0001)                 1.114203141013064E+05,      /* I =  1 */
(PID.TID 0000.0001)                 1.549545757850771E+05,      /* I =  2 */
(PID.TID 0000.0001)                 1.829777599966776E+05,      /* I =  3 */
(PID.TID 0000.0001)                 2.042717761866506E+05,      /* I =  4 */
(PID.TID 0000.0001)                 2.216367828252819E+05,      /* I =  5 */
(PID.TID 0000.0001)                 2.363029564123586E+05,      /* I =  6 */
(PID.TID 0000.0001)                 2.489113743322025E+05,      /* I =  7 */
(PID.TID 0000.0001)                 2.598293319150326E+05,      /* I =  8 */
(PID.TID 0000.0001)                 2.692787333338535E+05,      /* I =  9 */
(PID.TID 0000.0001)                 2.773972106720365E+05,      /* I = 10 */
(PID.TID 0000.0001)                 2.842706922224558E+05,      /* I = 11 */
(PID.TID 0000.0001)                 2.899523122489404E+05,      /* I = 12 */
(PID.TID 0000.0001)                 2.944741346384699E+05,      /* I = 13 */
(PID.TID 0000.0001)                 2.978547649292580E+05,      /* I = 14 */
(PID.TID 0000.0001)                 3.001044073506459E+05,      /* I = 15 */
(PID.TID 0000.0001)     2 @  3.012281885409289E+05,             /* I = 16: 17 */
(PID.TID 0000.0001)                 3.001044073506459E+05,      /* I = 18 */
(PID.TID 0000.0001)                 2.978547649292580E+05,      /* I = 19 */
(PID.TID 0000.0001)                 2.944741346384699E+05,      /* I = 20 */
(PID.TID 0000.0001)                 2.899523122489404E+05,      /* I = 21 */
(PID.TID 0000.0001)                 2.842706922224558E+05,      /* I = 22 */
(PID.TID 0000.0001)                 2.773972106720365E+05,      /* I = 23 */
(PID.TID 0000.0001)                 2.692787333338535E+05,      /* I = 24 */
(PID.TID 0000.0001)                 2.598293319150326E+05,      /* I = 25 */
(PID.TID 0000.0001)                 2.489113743322025E+05,      /* I = 26 */
(PID.TID 0000.0001)                 2.363029564123586E+05,      /* I = 27 */
(PID.TID 0000.0001)                 2.216367828252819E+05,      /* I = 28 */
(PID.TID 0000.0001)                 2.042717761866506E+05,      /* I = 29 */
(PID.TID 0000.0001)                 1.829777599966776E+05,      /* I = 30 */
(PID.TID 0000.0001)                 1.549545757850771E+05,      /* I = 31 */
(PID.TID 0000.0001)     2 @  1.114203141013064E+05,             /* I = 32: 33 */
(PID.TID 0000.0001)                 1.549545757850771E+05,      /* I = 34 */
(PID.TID 0000.0001)                 1.829777599966776E+05,      /* I = 35 */
(PID.TID 0000.0001)                 2.042717761866506E+05,      /* I = 36 */
(PID.TID 0000.0001)                 2.216367828252819E+05,      /* I = 37 */
(PID.TID 0000.0001)                 2.363029564123586E+05,      /* I = 38 */
(PID.TID 0000.0001)                 2.489113743322025E+05,      /* I = 39 */
(PID.TID 0000.0001)                 2.598293319150326E+05,      /* I = 40 */
(PID.TID 0000.0001)                 2.692787333338535E+05,      /* I = 41 */
(PID.TID 0000.0001)                 2.773972106720365E+05,      /* I = 42 */
(PID.TID 0000.0001)                 2.842706922224558E+05,      /* I = 43 */
(PID.TID 0000.0001)                 2.899523122489404E+05,      /* I = 44 */
(PID.TID 0000.0001)                 2.944741346384699E+05,      /* I = 45 */
(PID.TID 0000.0001)                 2.978547649292580E+05,      /* I = 46 */
(PID.TID 0000.0001)                 3.001044073506459E+05,      /* I = 47 */
(PID.TID 0000.0001)     2 @  3.012281885409289E+05,             /* I = 48: 49 */
(PID.TID 0000.0001)                 3.001044073506459E+05,      /* I = 50 */
(PID.TID 0000.0001)                 2.978547649292580E+05,      /* I = 51 */
(PID.TID 0000.0001)                 2.944741346384699E+05,      /* I = 52 */
(PID.TID 0000.0001)                 2.899523122489404E+05,      /* I = 53 */
(PID.TID 0000.0001)                 2.842706922224558E+05,      /* I = 54 */
(PID.TID 0000.0001)                 2.773972106720365E+05,      /* I = 55 */
(PID.TID 0000.0001)                 2.692787333338535E+05,      /* I = 56 */
(PID.TID 0000.0001)                 2.598293319150326E+05,      /* I = 57 */
(PID.TID 0000.0001)                 2.489113743322025E+05,      /* I = 58 */
(PID.TID 0000.0001)                 2.363029564123586E+05,      /* I = 59 */
(PID.TID 0000.0001)                 2.216367828252819E+05,      /* I = 60 */
(PID.TID 0000.0001)                 2.042717761866506E+05,      /* I = 61 */
(PID.TID 0000.0001)                 1.829777599966776E+05,      /* I = 62 */
(PID.TID 0000.0001)                 1.549545757850771E+05,      /* I = 63 */
(PID.TID 0000.0001)     2 @  1.114203141013064E+05,             /* I = 64: 65 */
(PID.TID 0000.0001)                 1.549545757850771E+05,      /* I = 66 */
(PID.TID 0000.0001)                 1.829777599966776E+05,      /* I = 67 */
(PID.TID 0000.0001)                 2.042717761866506E+05,      /* I = 68 */
(PID.TID 0000.0001)                 2.216367828252819E+05,      /* I = 69 */
(PID.TID 0000.0001)                 2.363029564123586E+05,      /* I = 70 */
(PID.TID 0000.0001)                 2.489113743322025E+05,      /* I = 71 */
(PID.TID 0000.0001)                 2.598293319150326E+05,      /* I = 72 */
(PID.TID 0000.0001)                 2.692787333338535E+05,      /* I = 73 */
(PID.TID 0000.0001)                 2.773972106720365E+05,      /* I = 74 */
(PID.TID 0000.0001)                 2.842706922224558E+05,      /* I = 75 */
(PID.TID 0000.0001)                 2.899523122489404E+05,      /* I = 76 */
(PID.TID 0000.0001)                 2.944741346384699E+05,      /* I = 77 */
(PID.TID 0000.0001)                 2.978547649292580E+05,      /* I = 78 */
(PID.TID 0000.0001)                 3.001044073506459E+05,      /* I = 79 */
(PID.TID 0000.0001)     2 @  3.012281885409289E+05,             /* I = 80: 81 */
(PID.TID 0000.0001)                 3.001044073506459E+05,      /* I = 82 */
(PID.TID 0000.0001)                 2.978547649292580E+05,      /* I = 83 */
(PID.TID 0000.0001)                 2.944741346384699E+05,      /* I = 84 */
(PID.TID 0000.0001)                 2.899523122489404E+05,      /* I = 85 */
(PID.TID 0000.0001)                 2.842706922224558E+05,      /* I = 86 */
(PID.TID 0000.0001)                 2.773972106720365E+05,      /* I = 87 */
(PID.TID 0000.0001)                 2.692787333338535E+05,      /* I = 88 */
(PID.TID 0000.0001)                 2.598293319150326E+05,      /* I = 89 */
(PID.TID 0000.0001)                 2.489113743322025E+05,      /* I = 90 */
(PID.TID 0000.0001)                 2.363029564123586E+05,      /* I = 91 */
(PID.TID 0000.0001)                 2.216367828252819E+05,      /* I = 92 */
(PID.TID 0000.0001)                 2.042717761866506E+05,      /* I = 93 */
(PID.TID 0000.0001)                 1.829777599966776E+05,      /* I = 94 */
(PID.TID 0000.0001)                 1.549545757850771E+05,      /* I = 95 */
(PID.TID 0000.0001)     2 @  1.114203141013064E+05,             /* I = 96: 97 */
(PID.TID 0000.0001)                 1.549545757850771E+05,      /* I = 98 */
(PID.TID 0000.0001)                 1.829777599966776E+05,      /* I = 99 */
(PID.TID 0000.0001)                 2.042717761866506E+05,      /* I =100 */
(PID.TID 0000.0001)                 2.216367828252819E+05,      /* I =101 */
(PID.TID 0000.0001)                 2.363029564123586E+05,      /* I =102 */
(PID.TID 0000.0001)                 2.489113743322025E+05,      /* I =103 */
(PID.TID 0000.0001)                 2.598293319150326E+05,      /* I =104 */
(PID.TID 0000.0001)                 2.692787333338535E+05,      /* I =105 */
(PID.TID 0000.0001)                 2.773972106720365E+05,      /* I =106 */
(PID.TID 0000.0001)                 2.842706922224558E+05,      /* I =107 */
(PID.TID 0000.0001)                 2.899523122489404E+05,      /* I =108 */
(PID.TID 0000.0001)                 2.944741346384699E+05,      /* I =109 */
(PID.TID 0000.0001)                 2.978547649292580E+05,      /* I =110 */
(PID.TID 0000.0001)                 3.001044073506459E+05,      /* I =111 */
(PID.TID 0000.0001)     2 @  3.012281885409289E+05,             /* I =112:113 */
(PID.TID 0000.0001)                 3.001044073506459E+05,      /* I =114 */
(PID.TID 0000.0001)                 2.978547649292580E+05,      /* I =115 */
(PID.TID 0000.0001)                 2.944741346384699E+05,      /* I =116 */
(PID.TID 0000.0001)                 2.899523122489404E+05,      /* I =117 */
(PID.TID 0000.0001)                 2.842706922224558E+05,      /* I =118 */
(PID.TID 0000.0001)                 2.773972106720365E+05,      /* I =119 */
(PID.TID 0000.0001)                 2.692787333338535E+05,      /* I =120 */
(PID.TID 0000.0001)                 2.598293319150326E+05,      /* I =121 */
(PID.TID 0000.0001)                 2.489113743322025E+05,      /* I =122 */
(PID.TID 0000.0001)                 2.363029564123586E+05,      /* I =123 */
(PID.TID 0000.0001)                 2.216367828252819E+05,      /* I =124 */
(PID.TID 0000.0001)                 2.042717761866506E+05,      /* I =125 */
(PID.TID 0000.0001)                 1.829777599966776E+05,      /* I =126 */
(PID.TID 0000.0001)                 1.549545757850771E+05,      /* I =127 */
(PID.TID 0000.0001)     2 @  1.114203141013064E+05,             /* I =128:129 */
(PID.TID 0000.0001)                 1.549545757850771E+05,      /* I =130 */
(PID.TID 0000.0001)                 1.829777599966776E+05,      /* I =131 */
(PID.TID 0000.0001)                 2.042717761866506E+05,      /* I =132 */
(PID.TID 0000.0001)                 2.216367828252819E+05,      /* I =133 */
(PID.TID 0000.0001)                 2.363029564123586E+05,      /* I =134 */
(PID.TID 0000.0001)                 2.489113743322025E+05,      /* I =135 */
(PID.TID 0000.0001)                 2.598293319150326E+05,      /* I =136 */
(PID.TID 0000.0001)                 2.692787333338535E+05,      /* I =137 */
(PID.TID 0000.0001)                 2.773972106720365E+05,      /* I =138 */
(PID.TID 0000.0001)                 2.842706922224558E+05,      /* I =139 */
(PID.TID 0000.0001)                 2.899523122489404E+05,      /* I =140 */
(PID.TID 0000.0001)                 2.944741346384699E+05,      /* I =141 */
(PID.TID 0000.0001)                 2.978547649292580E+05,      /* I =142 */
(PID.TID 0000.0001)                 3.001044073506459E+05,      /* I =143 */
(PID.TID 0000.0001)     2 @  3.012281885409289E+05,             /* I =144:145 */
(PID.TID 0000.0001)                 3.001044073506459E+05,      /* I =146 */
(PID.TID 0000.0001)                 2.978547649292580E+05,      /* I =147 */
(PID.TID 0000.0001)                 2.944741346384699E+05,      /* I =148 */
(PID.TID 0000.0001)                 2.899523122489404E+05,      /* I =149 */
(PID.TID 0000.0001)                 2.842706922224558E+05,      /* I =150 */
(PID.TID 0000.0001)                 2.773972106720365E+05,      /* I =151 */
(PID.TID 0000.0001)                 2.692787333338535E+05,      /* I =152 */
(PID.TID 0000.0001)                 2.598293319150326E+05,      /* I =153 */
(PID.TID 0000.0001)                 2.489113743322025E+05,      /* I =154 */
(PID.TID 0000.0001)                 2.363029564123586E+05,      /* I =155 */
(PID.TID 0000.0001)                 2.216367828252819E+05,      /* I =156 */
(PID.TID 0000.0001)                 2.042717761866506E+05,      /* I =157 */
(PID.TID 0000.0001)                 1.829777599966776E+05,      /* I =158 */
(PID.TID 0000.0001)                 1.549545757850771E+05,      /* I =159 */
(PID.TID 0000.0001)     2 @  1.114203141013064E+05,             /* I =160:161 */
(PID.TID 0000.0001)                 1.549545757850771E+05,      /* I =162 */
(PID.TID 0000.0001)                 1.829777599966776E+05,      /* I =163 */
(PID.TID 0000.0001)                 2.042717761866506E+05,      /* I =164 */
(PID.TID 0000.0001)                 2.216367828252819E+05,      /* I =165 */
(PID.TID 0000.0001)                 2.363029564123586E+05,      /* I =166 */
(PID.TID 0000.0001)                 2.489113743322025E+05,      /* I =167 */
(PID.TID 0000.0001)                 2.598293319150326E+05,      /* I =168 */
(PID.TID 0000.0001)                 2.692787333338535E+05,      /* I =169 */
(PID.TID 0000.0001)                 2.773972106720365E+05,      /* I =170 */
(PID.TID 0000.0001)                 2.842706922224558E+05,      /* I =171 */
(PID.TID 0000.0001)                 2.899523122489404E+05,      /* I =172 */
(PID.TID 0000.0001)                 2.944741346384699E+05,      /* I =173 */
(PID.TID 0000.0001)                 2.978547649292580E+05,      /* I =174 */
(PID.TID 0000.0001)                 3.001044073506459E+05,      /* I =175 */
(PID.TID 0000.0001)     2 @  3.012281885409289E+05,             /* I =176:177 */
(PID.TID 0000.0001)                 3.001044073506459E+05,      /* I =178 */
(PID.TID 0000.0001)                 2.978547649292580E+05,      /* I =179 */
(PID.TID 0000.0001)                 2.944741346384699E+05,      /* I =180 */
(PID.TID 0000.0001)                 2.899523122489404E+05,      /* I =181 */
(PID.TID 0000.0001)                 2.842706922224558E+05,      /* I =182 */
(PID.TID 0000.0001)                 2.773972106720365E+05,      /* I =183 */
(PID.TID 0000.0001)                 2.692787333338535E+05,      /* I =184 */
(PID.TID 0000.0001)                 2.598293319150326E+05,      /* I =185 */
(PID.TID 0000.0001)                 2.489113743322025E+05,      /* I =186 */
(PID.TID 0000.0001)                 2.363029564123586E+05,      /* I =187 */
(PID.TID 0000.0001)                 2.216367828252819E+05,      /* I =188 */
(PID.TID 0000.0001)                 2.042717761866506E+05,      /* I =189 */
(PID.TID 0000.0001)                 1.829777599966776E+05,      /* I =190 */
(PID.TID 0000.0001)                 1.549545757850771E+05,      /* I =191 */
(PID.TID 0000.0001)                 1.114203141013064E+05       /* I =192 */
(PID.TID 0000.0001)     ;
(PID.TID 0000.0001) dyC =  /* dyC(1,:,1,:) ( m - cartesian, degrees - spherical ) */
(PID.TID 0000.0001)                 1.114203141013064E+05,      /* J =  1 */
(PID.TID 0000.0001)                 1.391343389937106E+05,      /* J =  2 */
(PID.TID 0000.0001)                 1.709574999026267E+05,      /* J =  3 */
(PID.TID 0000.0001)                 1.946503699269892E+05,      /* J =  4 */
(PID.TID 0000.0001)                 2.135964483342134E+05,      /* J =  5 */
(PID.TID 0000.0001)                 2.294195678257306E+05,      /* J =  6 */
(PID.TID 0000.0001)                 2.429464709770498E+05,      /* J =  7 */
(PID.TID 0000.0001)                 2.546408290696998E+05,      /* J =  8 */
(PID.TID 0000.0001)                 2.647791839299727E+05,      /* J =  9 */
(PID.TID 0000.0001)                 2.735321911346108E+05,      /* J = 10 */
(PID.TID 0000.0001)                 2.810065951609633E+05,      /* J = 11 */
(PID.TID 0000.0001)                 2.872689479506990E+05,      /* J = 12 */
(PID.TID 0000.0001)                 2.923599955312932E+05,      /* J = 13 */
(PID.TID 0000.0001)                 2.963038832565530E+05,      /* J = 14 */
(PID.TID 0000.0001)                 2.991142470004740E+05,      /* J = 15 */
(PID.TID 0000.0001)                 3.007982711627968E+05,      /* J = 16 */
(PID.TID 0000.0001)                 3.013593857228136E+05,      /* J = 17 */
(PID.TID 0000.0001)                 3.007982711627968E+05,      /* J = 18 */
(PID.TID 0000.0001)                 2.991142470004740E+05,      /* J = 19 */
(PID.TID 0000.0001)                 2.963038832565530E+05,      /* J = 20 */
(PID.TID 0000.0001)                 2.923599955312932E+05,      /* J = 21 */
(PID.TID 0000.0001)                 2.872689479506990E+05,      /* J = 22 */
(PID.TID 0000.0001)                 2.810065951609633E+05,      /* J = 23 */
(PID.TID 0000.0001)                 2.735321911346108E+05,      /* J = 24 */
(PID.TID 0000.0001)                 2.647791839299727E+05,      /* J = 25 */
(PID.TID 0000.0001)                 2.546408290696998E+05,      /* J = 26 */
(PID.TID 0000.0001)                 2.429464709770498E+05,      /* J = 27 */
(PID.TID 0000.0001)                 2.294195678257306E+05,      /* J = 28 */
(PID.TID 0000.0001)                 2.135964483342134E+05,      /* J = 29 */
(PID.TID 0000.0001)                 1.946503699269892E+05,      /* J = 30 */
(PID.TID 0000.0001)                 1.709574999026267E+05,      /* J = 31 */
(PID.TID 0000.0001)                 1.391343389937106E+05       /* J = 32 */
(PID.TID 0000.0001)     ;
(PID.TID 0000.0001) dxV =  /* dxV(:,1,:,1) ( m - cartesian, degrees - spherical ) */
(PID.TID 0000.0001)                 8.015229982413632E+04,      /* I =  1 */
(PID.TID 0000.0001)                 1.333130744933864E+05,      /* I =  2 */
(PID.TID 0000.0001)                 1.691744868129062E+05,      /* I =  3 */
(PID.TID 0000.0001)                 1.937548202849060E+05,      /* I =  4 */
(PID.TID 0000.0001)                 2.130490056267208E+05,      /* I =  5 */
(PID.TID 0000.0001)                 2.290479919481738E+05,      /* I =  6 */
(PID.TID 0000.0001)                 2.426774358027004E+05,      /* I =  7 */
(PID.TID 0000.0001)                 2.544372984215561E+05,      /* I =  8 */
(PID.TID 0000.0001)                 2.646201463834826E+05,      /* I =  9 */
(PID.TID 0000.0001)                 2.734046499619031E+05,      /* I = 10 */
(PID.TID 0000.0001)                 2.809019351693761E+05,      /* I = 11 */
(PID.TID 0000.0001)                 2.871811105274442E+05,      /* I = 12 */
(PID.TID 0000.0001)                 2.922844849381675E+05,      /* I = 13 */
(PID.TID 0000.0001)                 2.962371870847826E+05,      /* I = 14 */
(PID.TID 0000.0001)                 2.990534755671296E+05,      /* I = 15 */
(PID.TID 0000.0001)                 3.007409169495504E+05,      /* I = 16 */
(PID.TID 0000.0001)                 3.013031486919771E+05,      /* I = 17 */
(PID.TID 0000.0001)                 3.007409169495504E+05,      /* I = 18 */
(PID.TID 0000.0001)                 2.990534755671296E+05,      /* I = 19 */
(PID.TID 0000.0001)                 2.962371870847826E+05,      /* I = 20 */
(PID.TID 0000.0001)                 2.922844849381675E+05,      /* I = 21 */
(PID.TID 0000.0001)                 2.871811105274442E+05,      /* I = 22 */
(PID.TID 0000.0001)                 2.809019351693761E+05,      /* I = 23 */
(PID.TID 0000.0001)                 2.734046499619031E+05,      /* I = 24 */
(PID.TID 0000.0001)                 2.646201463834826E+05,      /* I = 25 */
(PID.TID 0000.0001)                 2.544372984215561E+05,      /* I = 26 */
(PID.TID 0000.0001)                 2.426774358027004E+05,      /* I = 27 */
(PID.TID 0000.0001)                 2.290479919481738E+05,      /* I = 28 */
(PID.TID 0000.0001)                 2.130490056267208E+05,      /* I = 29 */
(PID.TID 0000.0001)                 1.937548202849060E+05,      /* I = 30 */
(PID.TID 0000.0001)                 1.691744868129062E+05,      /* I = 31 */
(PID.TID 0000.0001)                 1.333130744933864E+05,      /* I = 32 */
(PID.TID 0000.0001)                 8.015229982413632E+04,      /* I = 33 */
(PID.TID 0000.0001)                 1.333130744933864E+05,      /* I = 34 */
(PID.TID 0000.0001)                 1.691744868129062E+05,      /* I = 35 */
(PID.TID 0000.0001)                 1.937548202849060E+05,      /* I = 36 */
(PID.TID 0000.0001)                 2.130490056267208E+05,      /* I = 37 */
(PID.TID 0000.0001)                 2.290479919481738E+05,      /* I = 38 */
(PID.TID 0000.0001)                 2.426774358027004E+05,      /* I = 39 */
(PID.TID 0000.0001)                 2.544372984215561E+05,      /* I = 40 */
(PID.TID 0000.0001)                 2.646201463834826E+05,      /* I = 41 */
(PID.TID 0000.0001)                 2.734046499619031E+05,      /* I = 42 */
(PID.TID 0000.0001)                 2.809019351693761E+05,      /* I = 43 */
(PID.TID 0000.0001)                 2.871811105274442E+05,      /* I = 44 */
(PID.TID 0000.0001)                 2.922844849381675E+05,      /* I = 45 */
(PID.TID 0000.0001)                 2.962371870847826E+05,      /* I = 46 */
(PID.TID 0000.0001)                 2.990534755671296E+05,      /* I = 47 */
(PID.TID 0000.0001)                 3.007409169495504E+05,      /* I = 48 */
(PID.TID 0000.0001)                 3.013031486919771E+05,      /* I = 49 */
(PID.TID 0000.0001)                 3.007409169495504E+05,      /* I = 50 */
(PID.TID 0000.0001)                 2.990534755671296E+05,      /* I = 51 */
(PID.TID 0000.0001)                 2.962371870847826E+05,      /* I = 52 */
(PID.TID 0000.0001)                 2.922844849381675E+05,      /* I = 53 */
(PID.TID 0000.0001)                 2.871811105274442E+05,      /* I = 54 */
(PID.TID 0000.0001)                 2.809019351693761E+05,      /* I = 55 */
(PID.TID 0000.0001)                 2.734046499619031E+05,      /* I = 56 */
(PID.TID 0000.0001)                 2.646201463834826E+05,      /* I = 57 */
(PID.TID 0000.0001)                 2.544372984215561E+05,      /* I = 58 */
(PID.TID 0000.0001)                 2.426774358027004E+05,      /* I = 59 */
(PID.TID 0000.0001)                 2.290479919481738E+05,      /* I = 60 */
(PID.TID 0000.0001)                 2.130490056267208E+05,      /* I = 61 */
(PID.TID 0000.0001)                 1.937548202849060E+05,      /* I = 62 */
(PID.TID 0000.0001)                 1.691744868129062E+05,      /* I = 63 */
(PID.TID 0000.0001)                 1.333130744933864E+05,      /* I = 64 */
(PID.TID 0000.0001)                 8.015229982413632E+04,      /* I = 65 */
(PID.TID 0000.0001)                 1.333130744933864E+05,      /* I = 66 */
(PID.TID 0000.0001)                 1.691744868129062E+05,      /* I = 67 */
(PID.TID 0000.0001)                 1.937548202849060E+05,      /* I = 68 */
(PID.TID 0000.0001)                 2.130490056267208E+05,      /* I = 69 */
(PID.TID 0000.0001)                 2.290479919481738E+05,      /* I = 70 */
(PID.TID 0000.0001)                 2.426774358027004E+05,      /* I = 71 */
(PID.TID 0000.0001)                 2.544372984215561E+05,      /* I = 72 */
(PID.TID 0000.0001)                 2.646201463834826E+05,      /* I = 73 */
(PID.TID 0000.0001)                 2.734046499619031E+05,      /* I = 74 */
(PID.TID 0000.0001)                 2.809019351693761E+05,      /* I = 75 */
(PID.TID 0000.0001)                 2.871811105274442E+05,      /* I = 76 */
(PID.TID 0000.0001)                 2.922844849381675E+05,      /* I = 77 */
(PID.TID 0000.0001)                 2.962371870847826E+05,      /* I = 78 */
(PID.TID 0000.0001)                 2.990534755671296E+05,      /* I = 79 */
(PID.TID 0000.0001)                 3.007409169495504E+05,      /* I = 80 */
(PID.TID 0000.0001)                 3.013031486919771E+05,      /* I = 81 */
(PID.TID 0000.0001)                 3.007409169495504E+05,      /* I = 82 */
(PID.TID 0000.0001)                 2.990534755671296E+05,      /* I = 83 */
(PID.TID 0000.0001)                 2.962371870847826E+05,      /* I = 84 */
(PID.TID 0000.0001)                 2.922844849381675E+05,      /* I = 85 */
(PID.TID 0000.0001)                 2.871811105274442E+05,      /* I = 86 */
(PID.TID 0000.0001)                 2.809019351693761E+05,      /* I = 87 */
(PID.TID 0000.0001)                 2.734046499619031E+05,      /* I = 88 */
(PID.TID 0000.0001)                 2.646201463834826E+05,      /* I = 89 */
(PID.TID 0000.0001)                 2.544372984215561E+05,      /* I = 90 */
(PID.TID 0000.0001)                 2.426774358027004E+05,      /* I = 91 */
(PID.TID 0000.0001)                 2.290479919481738E+05,      /* I = 92 */
(PID.TID 0000.0001)                 2.130490056267208E+05,      /* I = 93 */
(PID.TID 0000.0001)                 1.937548202849060E+05,      /* I = 94 */
(PID.TID 0000.0001)                 1.691744868129062E+05,      /* I = 95 */
(PID.TID 0000.0001)                 1.333130744933864E+05,      /* I = 96 */
(PID.TID 0000.0001)                 8.015229982413632E+04,      /* I = 97 */
(PID.TID 0000.0001)                 1.333130744933864E+05,      /* I = 98 */
(PID.TID 0000.0001)                 1.691744868129062E+05,      /* I = 99 */
(PID.TID 0000.0001)                 1.937548202849060E+05,      /* I =100 */
(PID.TID 0000.0001)                 2.130490056267208E+05,      /* I =101 */
(PID.TID 0000.0001)                 2.290479919481738E+05,      /* I =102 */
(PID.TID 0000.0001)                 2.426774358027004E+05,      /* I =103 */
(PID.TID 0000.0001)                 2.544372984215561E+05,      /* I =104 */
(PID.TID 0000.0001)                 2.646201463834826E+05,      /* I =105 */
(PID.TID 0000.0001)                 2.734046499619031E+05,      /* I =106 */
(PID.TID 0000.0001)                 2.809019351693761E+05,      /* I =107 */
(PID.TID 0000.0001)                 2.871811105274442E+05,      /* I =108 */
(PID.TID 0000.0001)                 2.922844849381675E+05,      /* I =109 */
(PID.TID 0000.0001)                 2.962371870847826E+05,      /* I =110 */
(PID.TID 0000.0001)                 2.990534755671296E+05,      /* I =111 */
(PID.TID 0000.0001)                 3.007409169495504E+05,      /* I =112 */
(PID.TID 0000.0001)                 3.013031486919771E+05,      /* I =113 */
(PID.TID 0000.0001)                 3.007409169495504E+05,      /* I =114 */
(PID.TID 0000.0001)                 2.990534755671296E+05,      /* I =115 */
(PID.TID 0000.0001)                 2.962371870847826E+05,      /* I =116 */
(PID.TID 0000.0001)                 2.922844849381675E+05,      /* I =117 */
(PID.TID 0000.0001)                 2.871811105274442E+05,      /* I =118 */
(PID.TID 0000.0001)                 2.809019351693761E+05,      /* I =119 */
(PID.TID 0000.0001)                 2.734046499619031E+05,      /* I =120 */
(PID.TID 0000.0001)                 2.646201463834826E+05,      /* I =121 */
(PID.TID 0000.0001)                 2.544372984215561E+05,      /* I =122 */
(PID.TID 0000.0001)                 2.426774358027004E+05,      /* I =123 */
(PID.TID 0000.0001)                 2.290479919481738E+05,      /* I =124 */
(PID.TID 0000.0001)                 2.130490056267208E+05,      /* I =125 */
(PID.TID 0000.0001)                 1.937548202849060E+05,      /* I =126 */
(PID.TID 0000.0001)                 1.691744868129062E+05,      /* I =127 */
(PID.TID 0000.0001)                 1.333130744933864E+05,      /* I =128 */
(PID.TID 0000.0001)                 8.015229982413632E+04,      /* I =129 */
(PID.TID 0000.0001)                 1.333130744933864E+05,      /* I =130 */
(PID.TID 0000.0001)                 1.691744868129062E+05,      /* I =131 */
(PID.TID 0000.0001)                 1.937548202849060E+05,      /* I =132 */
(PID.TID 0000.0001)                 2.130490056267208E+05,      /* I =133 */
(PID.TID 0000.0001)                 2.290479919481738E+05,      /* I =134 */
(PID.TID 0000.0001)                 2.426774358027004E+05,      /* I =135 */
(PID.TID 0000.0001)                 2.544372984215561E+05,      /* I =136 */
(PID.TID 0000.0001)                 2.646201463834826E+05,      /* I =137 */
(PID.TID 0000.0001)                 2.734046499619031E+05,      /* I =138 */
(PID.TID 0000.0001)                 2.809019351693761E+05,      /* I =139 */
(PID.TID 0000.0001)                 2.871811105274442E+05,      /* I =140 */
(PID.TID 0000.0001)                 2.922844849381675E+05,      /* I =141 */
(PID.TID 0000.0001)                 2.962371870847826E+05,      /* I =142 */
(PID.TID 0000.0001)                 2.990534755671296E+05,      /* I =143 */
(PID.TID 0000.0001)                 3.007409169495504E+05,      /* I =144 */
(PID.TID 0000.0001)                 3.013031486919771E+05,      /* I =145 */
(PID.TID 0000.0001)                 3.007409169495504E+05,      /* I =146 */
(PID.TID 0000.0001)                 2.990534755671296E+05,      /* I =147 */
(PID.TID 0000.0001)                 2.962371870847826E+05,      /* I =148 */
(PID.TID 0000.0001)                 2.922844849381675E+05,      /* I =149 */
(PID.TID 0000.0001)                 2.871811105274442E+05,      /* I =150 */
(PID.TID 0000.0001)                 2.809019351693761E+05,      /* I =151 */
(PID.TID 0000.0001)                 2.734046499619031E+05,      /* I =152 */
(PID.TID 0000.0001)                 2.646201463834826E+05,      /* I =153 */
(PID.TID 0000.0001)                 2.544372984215561E+05,      /* I =154 */
(PID.TID 0000.0001)                 2.426774358027004E+05,      /* I =155 */
(PID.TID 0000.0001)                 2.290479919481738E+05,      /* I =156 */
(PID.TID 0000.0001)                 2.130490056267208E+05,      /* I =157 */
(PID.TID 0000.0001)                 1.937548202849060E+05,      /* I =158 */
(PID.TID 0000.0001)                 1.691744868129062E+05,      /* I =159 */
(PID.TID 0000.0001)                 1.333130744933864E+05,      /* I =160 */
(PID.TID 0000.0001)                 8.015229982413632E+04,      /* I =161 */
(PID.TID 0000.0001)                 1.333130744933864E+05,      /* I =162 */
(PID.TID 0000.0001)                 1.691744868129062E+05,      /* I =163 */
(PID.TID 0000.0001)                 1.937548202849060E+05,      /* I =164 */
(PID.TID 0000.0001)                 2.130490056267208E+05,      /* I =165 */
(PID.TID 0000.0001)                 2.290479919481738E+05,      /* I =166 */
(PID.TID 0000.0001)                 2.426774358027004E+05,      /* I =167 */
(PID.TID 0000.0001)                 2.544372984215561E+05,      /* I =168 */
(PID.TID 0000.0001)                 2.646201463834826E+05,      /* I =169 */
(PID.TID 0000.0001)                 2.734046499619031E+05,      /* I =170 */
(PID.TID 0000.0001)                 2.809019351693761E+05,      /* I =171 */
(PID.TID 0000.0001)                 2.871811105274442E+05,      /* I =172 */
(PID.TID 0000.0001)                 2.922844849381675E+05,      /* I =173 */
(PID.TID 0000.0001)                 2.962371870847826E+05,      /* I =174 */
(PID.TID 0000.0001)                 2.990534755671296E+05,      /* I =175 */
(PID.TID 0000.0001)                 3.007409169495504E+05,      /* I =176 */
(PID.TID 0000.0001)                 3.013031486919771E+05,      /* I =177 */
(PID.TID 0000.0001)                 3.007409169495504E+05,      /* I =178 */
(PID.TID 0000.0001)                 2.990534755671296E+05,      /* I =179 */
(PID.TID 0000.0001)                 2.962371870847826E+05,      /* I =180 */
(PID.TID 0000.0001)                 2.922844849381675E+05,      /* I =181 */
(PID.TID 0000.0001)                 2.871811105274442E+05,      /* I =182 */
(PID.TID 0000.0001)                 2.809019351693761E+05,      /* I =183 */
(PID.TID 0000.0001)                 2.734046499619031E+05,      /* I =184 */
(PID.TID 0000.0001)                 2.646201463834826E+05,      /* I =185 */
(PID.TID 0000.0001)                 2.544372984215561E+05,      /* I =186 */
(PID.TID 0000.0001)                 2.426774358027004E+05,      /* I =187 */
(PID.TID 0000.0001)                 2.290479919481738E+05,      /* I =188 */
(PID.TID 0000.0001)                 2.130490056267208E+05,      /* I =189 */
(PID.TID 0000.0001)                 1.937548202849060E+05,      /* I =190 */
(PID.TID 0000.0001)                 1.691744868129062E+05,      /* I =191 */
(PID.TID 0000.0001)                 1.333130744933864E+05       /* I =192 */
(PID.TID 0000.0001)     ;
(PID.TID 0000.0001) dxV =  /* dxV(1,:,1,:) ( m - cartesian, degrees - spherical ) */
(PID.TID 0000.0001)                 8.015229982413632E+04,      /* J =  1 */
(PID.TID 0000.0001)                 1.362652340208229E+05,      /* J =  2 */
(PID.TID 0000.0001)                 1.701080315742101E+05,      /* J =  3 */
(PID.TID 0000.0001)                 1.942331448101592E+05,      /* J =  4 */
(PID.TID 0000.0001)                 2.133486626971531E+05,      /* J =  5 */
(PID.TID 0000.0001)                 2.292584591272880E+05,      /* J =  6 */
(PID.TID 0000.0001)                 2.428369969078989E+05,      /* J =  7 */
(PID.TID 0000.0001)                 2.545652950875683E+05,      /* J =  8 */
(PID.TID 0000.0001)                 2.647274964828302E+05,      /* J =  9 */
(PID.TID 0000.0001)                 2.734980225206389E+05,      /* J = 10 */
(PID.TID 0000.0001)                 2.809856491525217E+05,      /* J = 11 */
(PID.TID 0000.0001)                 2.872580915202295E+05,      /* J = 12 */
(PID.TID 0000.0001)                 2.923567890694162E+05,      /* J = 13 */
(PID.TID 0000.0001)                 2.963063101754721E+05,      /* J = 14 */
(PID.TID 0000.0001)                 2.991205495886625E+05,      /* J = 15 */
(PID.TID 0000.0001)                 3.008068453676764E+05,      /* J = 16 */
(PID.TID 0000.0001)                 3.013686170436881E+05,      /* J = 17 */
(PID.TID 0000.0001)                 3.008068453676764E+05,      /* J = 18 */
(PID.TID 0000.0001)                 2.991205495886625E+05,      /* J = 19 */
(PID.TID 0000.0001)                 2.963063101754721E+05,      /* J = 20 */
(PID.TID 0000.0001)                 2.923567890694162E+05,      /* J = 21 */
(PID.TID 0000.0001)                 2.872580915202295E+05,      /* J = 22 */
(PID.TID 0000.0001)                 2.809856491525217E+05,      /* J = 23 */
(PID.TID 0000.0001)                 2.734980225206389E+05,      /* J = 24 */
(PID.TID 0000.0001)                 2.647274964828302E+05,      /* J = 25 */
(PID.TID 0000.0001)                 2.545652950875683E+05,      /* J = 26 */
(PID.TID 0000.0001)                 2.428369969078989E+05,      /* J = 27 */
(PID.TID 0000.0001)                 2.292584591272880E+05,      /* J = 28 */
(PID.TID 0000.0001)                 2.133486626971531E+05,      /* J = 29 */
(PID.TID 0000.0001)                 1.942331448101592E+05,      /* J = 30 */
(PID.TID 0000.0001)                 1.701080315742101E+05,      /* J = 31 */
(PID.TID 0000.0001)                 1.362652340208229E+05       /* J = 32 */
(PID.TID 0000.0001)     ;
(PID.TID 0000.0001) dyU =  /* dyU(:,1,:,1) ( m - cartesian, degrees - spherical ) */
(PID.TID 0000.0001)                 8.015229982413632E+04,      /* I =  1 */
(PID.TID 0000.0001)                 1.362652340208229E+05,      /* I =  2 */
(PID.TID 0000.0001)                 1.701080315742101E+05,      /* I =  3 */
(PID.TID 0000.0001)                 1.942331448101592E+05,      /* I =  4 */
(PID.TID 0000.0001)                 2.133486626971531E+05,      /* I =  5 */
(PID.TID 0000.0001)                 2.292584591272880E+05,      /* I =  6 */
(PID.TID 0000.0001)                 2.428369969078989E+05,      /* I =  7 */
(PID.TID 0000.0001)                 2.545652950875683E+05,      /* I =  8 */
(PID.TID 0000.0001)                 2.647274964828302E+05,      /* I =  9 */
(PID.TID 0000.0001)                 2.734980225206389E+05,      /* I = 10 */
(PID.TID 0000.0001)                 2.809856491525217E+05,      /* I = 11 */
(PID.TID 0000.0001)                 2.872580915202295E+05,      /* I = 12 */
(PID.TID 0000.0001)                 2.923567890694162E+05,      /* I = 13 */
(PID.TID 0000.0001)                 2.963063101754721E+05,      /* I = 14 */
(PID.TID 0000.0001)                 2.991205495886625E+05,      /* I = 15 */
(PID.TID 0000.0001)                 3.008068453676764E+05,      /* I = 16 */
(PID.TID 0000.0001)                 3.013686170436881E+05,      /* I = 17 */
(PID.TID 0000.0001)                 3.008068453676764E+05,      /* I = 18 */
(PID.TID 0000.0001)                 2.991205495886625E+05,      /* I = 19 */
(PID.TID 0000.0001)                 2.963063101754721E+05,      /* I = 20 */
(PID.TID 0000.0001)                 2.923567890694162E+05,      /* I = 21 */
(PID.TID 0000.0001)                 2.872580915202295E+05,      /* I = 22 */
(PID.TID 0000.0001)                 2.809856491525217E+05,      /* I = 23 */
(PID.TID 0000.0001)                 2.734980225206389E+05,      /* I = 24 */
(PID.TID 0000.0001)                 2.647274964828302E+05,      /* I = 25 */
(PID.TID 0000.0001)                 2.545652950875683E+05,      /* I = 26 */
(PID.TID 0000.0001)                 2.428369969078989E+05,      /* I = 27 */
(PID.TID 0000.0001)                 2.292584591272880E+05,      /* I = 28 */
(PID.TID 0000.0001)                 2.133486626971531E+05,      /* I = 29 */
(PID.TID 0000.0001)                 1.942331448101592E+05,      /* I = 30 */
(PID.TID 0000.0001)                 1.701080315742101E+05,      /* I = 31 */
(PID.TID 0000.0001)                 1.362652340208229E+05,      /* I = 32 */
(PID.TID 0000.0001)                 8.015229982413632E+04,      /* I = 33 */
(PID.TID 0000.0001)                 1.362652340208229E+05,      /* I = 34 */
(PID.TID 0000.0001)                 1.701080315742101E+05,      /* I = 35 */
(PID.TID 0000.0001)                 1.942331448101592E+05,      /* I = 36 */
(PID.TID 0000.0001)                 2.133486626971531E+05,      /* I = 37 */
(PID.TID 0000.0001)                 2.292584591272880E+05,      /* I = 38 */
(PID.TID 0000.0001)                 2.428369969078989E+05,      /* I = 39 */
(PID.TID 0000.0001)                 2.545652950875683E+05,      /* I = 40 */
(PID.TID 0000.0001)                 2.647274964828302E+05,      /* I = 41 */
(PID.TID 0000.0001)                 2.734980225206389E+05,      /* I = 42 */
(PID.TID 0000.0001)                 2.809856491525217E+05,      /* I = 43 */
(PID.TID 0000.0001)                 2.872580915202295E+05,      /* I = 44 */
(PID.TID 0000.0001)                 2.923567890694162E+05,      /* I = 45 */
(PID.TID 0000.0001)                 2.963063101754721E+05,      /* I = 46 */
(PID.TID 0000.0001)                 2.991205495886625E+05,      /* I = 47 */
(PID.TID 0000.0001)                 3.008068453676764E+05,      /* I = 48 */
(PID.TID 0000.0001)                 3.013686170436881E+05,      /* I = 49 */
(PID.TID 0000.0001)                 3.008068453676764E+05,      /* I = 50 */
(PID.TID 0000.0001)                 2.991205495886625E+05,      /* I = 51 */
(PID.TID 0000.0001)                 2.963063101754721E+05,      /* I = 52 */
(PID.TID 0000.0001)                 2.923567890694162E+05,      /* I = 53 */
(PID.TID 0000.0001)                 2.872580915202295E+05,      /* I = 54 */
(PID.TID 0000.0001)                 2.809856491525217E+05,      /* I = 55 */
(PID.TID 0000.0001)                 2.734980225206389E+05,      /* I = 56 */
(PID.TID 0000.0001)                 2.647274964828302E+05,      /* I = 57 */
(PID.TID 0000.0001)                 2.545652950875683E+05,      /* I = 58 */
(PID.TID 0000.0001)                 2.428369969078989E+05,      /* I = 59 */
(PID.TID 0000.0001)                 2.292584591272880E+05,      /* I = 60 */
(PID.TID 0000.0001)                 2.133486626971531E+05,      /* I = 61 */
(PID.TID 0000.0001)                 1.942331448101592E+05,      /* I = 62 */
(PID.TID 0000.0001)                 1.701080315742101E+05,      /* I = 63 */
(PID.TID 0000.0001)                 1.362652340208229E+05,      /* I = 64 */
(PID.TID 0000.0001)                 8.015229982413632E+04,      /* I = 65 */
(PID.TID 0000.0001)                 1.362652340208229E+05,      /* I = 66 */
(PID.TID 0000.0001)                 1.701080315742101E+05,      /* I = 67 */
(PID.TID 0000.0001)                 1.942331448101592E+05,      /* I = 68 */
(PID.TID 0000.0001)                 2.133486626971531E+05,      /* I = 69 */
(PID.TID 0000.0001)                 2.292584591272880E+05,      /* I = 70 */
(PID.TID 0000.0001)                 2.428369969078989E+05,      /* I = 71 */
(PID.TID 0000.0001)                 2.545652950875683E+05,      /* I = 72 */
(PID.TID 0000.0001)                 2.647274964828302E+05,      /* I = 73 */
(PID.TID 0000.0001)                 2.734980225206389E+05,      /* I = 74 */
(PID.TID 0000.0001)                 2.809856491525217E+05,      /* I = 75 */
(PID.TID 0000.0001)                 2.872580915202295E+05,      /* I = 76 */
(PID.TID 0000.0001)                 2.923567890694162E+05,      /* I = 77 */
(PID.TID 0000.0001)                 2.963063101754721E+05,      /* I = 78 */
(PID.TID 0000.0001)                 2.991205495886625E+05,      /* I = 79 */
(PID.TID 0000.0001)                 3.008068453676764E+05,      /* I = 80 */
(PID.TID 0000.0001)                 3.013686170436881E+05,      /* I = 81 */
(PID.TID 0000.0001)                 3.008068453676764E+05,      /* I = 82 */
(PID.TID 0000.0001)                 2.991205495886625E+05,      /* I = 83 */
(PID.TID 0000.0001)                 2.963063101754721E+05,      /* I = 84 */
(PID.TID 0000.0001)                 2.923567890694162E+05,      /* I = 85 */
(PID.TID 0000.0001)                 2.872580915202295E+05,      /* I = 86 */
(PID.TID 0000.0001)                 2.809856491525217E+05,      /* I = 87 */
(PID.TID 0000.0001)                 2.734980225206389E+05,      /* I = 88 */
(PID.TID 0000.0001)                 2.647274964828302E+05,      /* I = 89 */
(PID.TID 0000.0001)                 2.545652950875683E+05,      /* I = 90 */
(PID.TID 0000.0001)                 2.428369969078989E+05,      /* I = 91 */
(PID.TID 0000.0001)                 2.292584591272880E+05,      /* I = 92 */
(PID.TID 0000.0001)                 2.133486626971531E+05,      /* I = 93 */
(PID.TID 0000.0001)                 1.942331448101592E+05,      /* I = 94 */
(PID.TID 0000.0001)                 1.701080315742101E+05,      /* I = 95 */
(PID.TID 0000.0001)                 1.362652340208229E+05,      /* I = 96 */
(PID.TID 0000.0001)                 8.015229982413632E+04,      /* I = 97 */
(PID.TID 0000.0001)                 1.362652340208229E+05,      /* I = 98 */
(PID.TID 0000.0001)                 1.701080315742101E+05,      /* I = 99 */
(PID.TID 0000.0001)                 1.942331448101592E+05,      /* I =100 */
(PID.TID 0000.0001)                 2.133486626971531E+05,      /* I =101 */
(PID.TID 0000.0001)                 2.292584591272880E+05,      /* I =102 */
(PID.TID 0000.0001)                 2.428369969078989E+05,      /* I =103 */
(PID.TID 0000.0001)                 2.545652950875683E+05,      /* I =104 */
(PID.TID 0000.0001)                 2.647274964828302E+05,      /* I =105 */
(PID.TID 0000.0001)                 2.734980225206389E+05,      /* I =106 */
(PID.TID 0000.0001)                 2.809856491525217E+05,      /* I =107 */
(PID.TID 0000.0001)                 2.872580915202295E+05,      /* I =108 */
(PID.TID 0000.0001)                 2.923567890694162E+05,      /* I =109 */
(PID.TID 0000.0001)                 2.963063101754721E+05,      /* I =110 */
(PID.TID 0000.0001)                 2.991205495886625E+05,      /* I =111 */
(PID.TID 0000.0001)                 3.008068453676764E+05,      /* I =112 */
(PID.TID 0000.0001)                 3.013686170436881E+05,      /* I =113 */
(PID.TID 0000.0001)                 3.008068453676764E+05,      /* I =114 */
(PID.TID 0000.0001)                 2.991205495886625E+05,      /* I =115 */
(PID.TID 0000.0001)                 2.963063101754721E+05,      /* I =116 */
(PID.TID 0000.0001)                 2.923567890694162E+05,      /* I =117 */
(PID.TID 0000.0001)                 2.872580915202295E+05,      /* I =118 */
(PID.TID 0000.0001)                 2.809856491525217E+05,      /* I =119 */
(PID.TID 0000.0001)                 2.734980225206389E+05,      /* I =120 */
(PID.TID 0000.0001)                 2.647274964828302E+05,      /* I =121 */
(PID.TID 0000.0001)                 2.545652950875683E+05,      /* I =122 */
(PID.TID 0000.0001)                 2.428369969078989E+05,      /* I =123 */
(PID.TID 0000.0001)                 2.292584591272880E+05,      /* I =124 */
(PID.TID 0000.0001)                 2.133486626971531E+05,      /* I =125 */
(PID.TID 0000.0001)                 1.942331448101592E+05,      /* I =126 */
(PID.TID 0000.0001)                 1.701080315742101E+05,      /* I =127 */
(PID.TID 0000.0001)                 1.362652340208229E+05,      /* I =128 */
(PID.TID 0000.0001)                 8.015229982413632E+04,      /* I =129 */
(PID.TID 0000.0001)                 1.362652340208229E+05,      /* I =130 */
(PID.TID 0000.0001)                 1.701080315742101E+05,      /* I =131 */
(PID.TID 0000.0001)                 1.942331448101592E+05,      /* I =132 */
(PID.TID 0000.0001)                 2.133486626971531E+05,      /* I =133 */
(PID.TID 0000.0001)                 2.292584591272880E+05,      /* I =134 */
(PID.TID 0000.0001)                 2.428369969078989E+05,      /* I =135 */
(PID.TID 0000.0001)                 2.545652950875683E+05,      /* I =136 */
(PID.TID 0000.0001)                 2.647274964828302E+05,      /* I =137 */
(PID.TID 0000.0001)                 2.734980225206389E+05,      /* I =138 */
(PID.TID 0000.0001)                 2.809856491525217E+05,      /* I =139 */
(PID.TID 0000.0001)                 2.872580915202295E+05,      /* I =140 */
(PID.TID 0000.0001)                 2.923567890694162E+05,      /* I =141 */
(PID.TID 0000.0001)                 2.963063101754721E+05,      /* I =142 */
(PID.TID 0000.0001)                 2.991205495886625E+05,      /* I =143 */
(PID.TID 0000.0001)                 3.008068453676764E+05,      /* I =144 */
(PID.TID 0000.0001)                 3.013686170436881E+05,      /* I =145 */
(PID.TID 0000.0001)                 3.008068453676764E+05,      /* I =146 */
(PID.TID 0000.0001)                 2.991205495886625E+05,      /* I =147 */
(PID.TID 0000.0001)                 2.963063101754721E+05,      /* I =148 */
(PID.TID 0000.0001)                 2.923567890694162E+05,      /* I =149 */
(PID.TID 0000.0001)                 2.872580915202295E+05,      /* I =150 */
(PID.TID 0000.0001)                 2.809856491525217E+05,      /* I =151 */
(PID.TID 0000.0001)                 2.734980225206389E+05,      /* I =152 */
(PID.TID 0000.0001)                 2.647274964828302E+05,      /* I =153 */
(PID.TID 0000.0001)                 2.545652950875683E+05,      /* I =154 */
(PID.TID 0000.0001)                 2.428369969078989E+05,      /* I =155 */
(PID.TID 0000.0001)                 2.292584591272880E+05,      /* I =156 */
(PID.TID 0000.0001)                 2.133486626971531E+05,      /* I =157 */
(PID.TID 0000.0001)                 1.942331448101592E+05,      /* I =158 */
(PID.TID 0000.0001)                 1.701080315742101E+05,      /* I =159 */
(PID.TID 0000.0001)                 1.362652340208229E+05,      /* I =160 */
(PID.TID 0000.0001)                 8.015229982413632E+04,      /* I =161 */
(PID.TID 0000.0001)                 1.362652340208229E+05,      /* I =162 */
(PID.TID 0000.0001)                 1.701080315742101E+05,      /* I =163 */
(PID.TID 0000.0001)                 1.942331448101592E+05,      /* I =164 */
(PID.TID 0000.0001)                 2.133486626971531E+05,      /* I =165 */
(PID.TID 0000.0001)                 2.292584591272880E+05,      /* I =166 */
(PID.TID 0000.0001)                 2.428369969078989E+05,      /* I =167 */
(PID.TID 0000.0001)                 2.545652950875683E+05,      /* I =168 */
(PID.TID 0000.0001)                 2.647274964828302E+05,      /* I =169 */
(PID.TID 0000.0001)                 2.734980225206389E+05,      /* I =170 */
(PID.TID 0000.0001)                 2.809856491525217E+05,      /* I =171 */
(PID.TID 0000.0001)                 2.872580915202295E+05,      /* I =172 */
(PID.TID 0000.0001)                 2.923567890694162E+05,      /* I =173 */
(PID.TID 0000.0001)                 2.963063101754721E+05,      /* I =174 */
(PID.TID 0000.0001)                 2.991205495886625E+05,      /* I =175 */
(PID.TID 0000.0001)                 3.008068453676764E+05,      /* I =176 */
(PID.TID 0000.0001)                 3.013686170436881E+05,      /* I =177 */
(PID.TID 0000.0001)                 3.008068453676764E+05,      /* I =178 */
(PID.TID 0000.0001)                 2.991205495886625E+05,      /* I =179 */
(PID.TID 0000.0001)                 2.963063101754721E+05,      /* I =180 */
(PID.TID 0000.0001)                 2.923567890694162E+05,      /* I =181 */
(PID.TID 0000.0001)                 2.872580915202295E+05,      /* I =182 */
(PID.TID 0000.0001)                 2.809856491525217E+05,      /* I =183 */
(PID.TID 0000.0001)                 2.734980225206389E+05,      /* I =184 */
(PID.TID 0000.0001)                 2.647274964828302E+05,      /* I =185 */
(PID.TID 0000.0001)                 2.545652950875683E+05,      /* I =186 */
(PID.TID 0000.0001)                 2.428369969078989E+05,      /* I =187 */
(PID.TID 0000.0001)                 2.292584591272880E+05,      /* I =188 */
(PID.TID 0000.0001)                 2.133486626971531E+05,      /* I =189 */
(PID.TID 0000.0001)                 1.942331448101592E+05,      /* I =190 */
(PID.TID 0000.0001)                 1.701080315742101E+05,      /* I =191 */
(PID.TID 0000.0001)                 1.362652340208229E+05       /* I =192 */
(PID.TID 0000.0001)     ;
(PID.TID 0000.0001) dyU =  /* dyU(1,:,1,:) ( m - cartesian, degrees - spherical ) */
(PID.TID 0000.0001)                 8.015229982413632E+04,      /* J =  1 */
(PID.TID 0000.0001)                 1.333130744933864E+05,      /* J =  2 */
(PID.TID 0000.0001)                 1.691744868129062E+05,      /* J =  3 */
(PID.TID 0000.0001)                 1.937548202849060E+05,      /* J =  4 */
(PID.TID 0000.0001)                 2.130490056267208E+05,      /* J =  5 */
(PID.TID 0000.0001)                 2.290479919481738E+05,      /* J =  6 */
(PID.TID 0000.0001)                 2.426774358027004E+05,      /* J =  7 */
(PID.TID 0000.0001)                 2.544372984215561E+05,      /* J =  8 */
(PID.TID 0000.0001)                 2.646201463834826E+05,      /* J =  9 */
(PID.TID 0000.0001)                 2.734046499619031E+05,      /* J = 10 */
(PID.TID 0000.0001)                 2.809019351693761E+05,      /* J = 11 */
(PID.TID 0000.0001)                 2.871811105274442E+05,      /* J = 12 */
(PID.TID 0000.0001)                 2.922844849381675E+05,      /* J = 13 */
(PID.TID 0000.0001)                 2.962371870847826E+05,      /* J = 14 */
(PID.TID 0000.0001)                 2.990534755671296E+05,      /* J = 15 */
(PID.TID 0000.0001)                 3.007409169495504E+05,      /* J = 16 */
(PID.TID 0000.0001)                 3.013031486919771E+05,      /* J = 17 */
(PID.TID 0000.0001)                 3.007409169495504E+05,      /* J = 18 */
(PID.TID 0000.0001)                 2.990534755671296E+05,      /* J = 19 */
(PID.TID 0000.0001)                 2.962371870847826E+05,      /* J = 20 */
(PID.TID 0000.0001)                 2.922844849381675E+05,      /* J = 21 */
(PID.TID 0000.0001)                 2.871811105274442E+05,      /* J = 22 */
(PID.TID 0000.0001)                 2.809019351693761E+05,      /* J = 23 */
(PID.TID 0000.0001)                 2.734046499619031E+05,      /* J = 24 */
(PID.TID 0000.0001)                 2.646201463834826E+05,      /* J = 25 */
(PID.TID 0000.0001)                 2.544372984215561E+05,      /* J = 26 */
(PID.TID 0000.0001)                 2.426774358027004E+05,      /* J = 27 */
(PID.TID 0000.0001)                 2.290479919481738E+05,      /* J = 28 */
(PID.TID 0000.0001)                 2.130490056267208E+05,      /* J = 29 */
(PID.TID 0000.0001)                 1.937548202849060E+05,      /* J = 30 */
(PID.TID 0000.0001)                 1.691744868129062E+05,      /* J = 31 */
(PID.TID 0000.0001)                 1.333130744933864E+05       /* J = 32 */
(PID.TID 0000.0001)     ;
(PID.TID 0000.0001) rA =  /* rA(:,1,:,1) ( m - cartesian, degrees - spherical ) */
(PID.TID 0000.0001)                 1.401900702255611E+10,      /* I =  1 */
(PID.TID 0000.0001)                 2.459906945574446E+10,      /* I =  2 */
(PID.TID 0000.0001)                 3.378518544307869E+10,      /* I =  3 */
(PID.TID 0000.0001)                 4.192037169898667E+10,      /* I =  4 */
(PID.TID 0000.0001)                 4.925938996118163E+10,      /* I =  5 */
(PID.TID 0000.0001)                 5.594154126607553E+10,      /* I =  6 */
(PID.TID 0000.0001)                 6.203683527772524E+10,      /* I =  7 */
(PID.TID 0000.0001)                 6.757541173817516E+10,      /* I =  8 */
(PID.TID 0000.0001)                 7.256353271748119E+10,      /* I =  9 */
(PID.TID 0000.0001)                 7.699293007098555E+10,      /* I = 10 */
(PID.TID 0000.0001)                 8.084683449728902E+10,      /* I = 11 */
(PID.TID 0000.0001)                 8.410423102796223E+10,      /* I = 12 */
(PID.TID 0000.0001)                 8.674306976737517E+10,      /* I = 13 */
(PID.TID 0000.0001)                 8.874277443041928E+10,      /* I = 14 */
(PID.TID 0000.0001)                 9.008620045350865E+10,      /* I = 15 */
(PID.TID 0000.0001)                 9.076111290418457E+10,      /* I = 16 */
(PID.TID 0000.0001)                 9.076111290422060E+10,      /* I = 17 */
(PID.TID 0000.0001)                 9.008620045354469E+10,      /* I = 18 */
(PID.TID 0000.0001)                 8.874277443041928E+10,      /* I = 19 */
(PID.TID 0000.0001)                 8.674306976741121E+10,      /* I = 20 */
(PID.TID 0000.0001)                 8.410423102799828E+10,      /* I = 21 */
(PID.TID 0000.0001)                 8.084683449728902E+10,      /* I = 22 */
(PID.TID 0000.0001)                 7.699293007098555E+10,      /* I = 23 */
(PID.TID 0000.0001)                 7.256353271748119E+10,      /* I = 24 */
(PID.TID 0000.0001)                 6.757541173817516E+10,      /* I = 25 */
(PID.TID 0000.0001)                 6.203683527772524E+10,      /* I = 26 */
(PID.TID 0000.0001)                 5.594154126611157E+10,      /* I = 27 */
(PID.TID 0000.0001)                 4.925938996118163E+10,      /* I = 28 */
(PID.TID 0000.0001)                 4.192037169898667E+10,      /* I = 29 */
(PID.TID 0000.0001)                 3.378518544304265E+10,      /* I = 30 */
(PID.TID 0000.0001)                 2.459906945574446E+10,      /* I = 31 */
(PID.TID 0000.0001)                 1.401900702259215E+10,      /* I = 32 */
(PID.TID 0000.0001)                 1.401900702255611E+10,      /* I = 33 */
(PID.TID 0000.0001)                 2.459906945574446E+10,      /* I = 34 */
(PID.TID 0000.0001)                 3.378518544307869E+10,      /* I = 35 */
(PID.TID 0000.0001)                 4.192037169898667E+10,      /* I = 36 */
(PID.TID 0000.0001)                 4.925938996118163E+10,      /* I = 37 */
(PID.TID 0000.0001)                 5.594154126607553E+10,      /* I = 38 */
(PID.TID 0000.0001)                 6.203683527772524E+10,      /* I = 39 */
(PID.TID 0000.0001)                 6.757541173817516E+10,      /* I = 40 */
(PID.TID 0000.0001)                 7.256353271748119E+10,      /* I = 41 */
(PID.TID 0000.0001)                 7.699293007098555E+10,      /* I = 42 */
(PID.TID 0000.0001)                 8.084683449728902E+10,      /* I = 43 */
(PID.TID 0000.0001)                 8.410423102796223E+10,      /* I = 44 */
(PID.TID 0000.0001)                 8.674306976737517E+10,      /* I = 45 */
(PID.TID 0000.0001)                 8.874277443041928E+10,      /* I = 46 */
(PID.TID 0000.0001)                 9.008620045350865E+10,      /* I = 47 */
(PID.TID 0000.0001)                 9.076111290418457E+10,      /* I = 48 */
(PID.TID 0000.0001)                 9.076111290422060E+10,      /* I = 49 */
(PID.TID 0000.0001)                 9.008620045354469E+10,      /* I = 50 */
(PID.TID 0000.0001)                 8.874277443041928E+10,      /* I = 51 */
(PID.TID 0000.0001)                 8.674306976741121E+10,      /* I = 52 */
(PID.TID 0000.0001)                 8.410423102799828E+10,      /* I = 53 */
(PID.TID 0000.0001)                 8.084683449728902E+10,      /* I = 54 */
(PID.TID 0000.0001)                 7.699293007098555E+10,      /* I = 55 */
(PID.TID 0000.0001)                 7.256353271748119E+10,      /* I = 56 */
(PID.TID 0000.0001)                 6.757541173817516E+10,      /* I = 57 */
(PID.TID 0000.0001)                 6.203683527772524E+10,      /* I = 58 */
(PID.TID 0000.0001)                 5.594154126611157E+10,      /* I = 59 */
(PID.TID 0000.0001)                 4.925938996118163E+10,      /* I = 60 */
(PID.TID 0000.0001)                 4.192037169898667E+10,      /* I = 61 */
(PID.TID 0000.0001)                 3.378518544304265E+10,      /* I = 62 */
(PID.TID 0000.0001)                 2.459906945574446E+10,      /* I = 63 */
(PID.TID 0000.0001)                 1.401900702259215E+10,      /* I = 64 */
(PID.TID 0000.0001)                 1.401900702255611E+10,      /* I = 65 */
(PID.TID 0000.0001)                 2.459906945574446E+10,      /* I = 66 */
(PID.TID 0000.0001)                 3.378518544307869E+10,      /* I = 67 */
(PID.TID 0000.0001)                 4.192037169898667E+10,      /* I = 68 */
(PID.TID 0000.0001)                 4.925938996118163E+10,      /* I = 69 */
(PID.TID 0000.0001)                 5.594154126607553E+10,      /* I = 70 */
(PID.TID 0000.0001)                 6.203683527772524E+10,      /* I = 71 */
(PID.TID 0000.0001)                 6.757541173817516E+10,      /* I = 72 */
(PID.TID 0000.0001)                 7.256353271748119E+10,      /* I = 73 */
(PID.TID 0000.0001)                 7.699293007098555E+10,      /* I = 74 */
(PID.TID 0000.0001)                 8.084683449728902E+10,      /* I = 75 */
(PID.TID 0000.0001)                 8.410423102796223E+10,      /* I = 76 */
(PID.TID 0000.0001)                 8.674306976737517E+10,      /* I = 77 */
(PID.TID 0000.0001)                 8.874277443041928E+10,      /* I = 78 */
(PID.TID 0000.0001)                 9.008620045350865E+10,      /* I = 79 */
(PID.TID 0000.0001)                 9.076111290418457E+10,      /* I = 80 */
(PID.TID 0000.0001)                 9.076111290422060E+10,      /* I = 81 */
(PID.TID 0000.0001)                 9.008620045354469E+10,      /* I = 82 */
(PID.TID 0000.0001)                 8.874277443041928E+10,      /* I = 83 */
(PID.TID 0000.0001)                 8.674306976741121E+10,      /* I = 84 */
(PID.TID 0000.0001)                 8.410423102799828E+10,      /* I = 85 */
(PID.TID 0000.0001)                 8.084683449728902E+10,      /* I = 86 */
(PID.TID 0000.0001)                 7.699293007098555E+10,      /* I = 87 */
(PID.TID 0000.0001)                 7.256353271748119E+10,      /* I = 88 */
(PID.TID 0000.0001)                 6.757541173817516E+10,      /* I = 89 */
(PID.TID 0000.0001)                 6.203683527772524E+10,      /* I = 90 */
(PID.TID 0000.0001)                 5.594154126611157E+10,      /* I = 91 */
(PID.TID 0000.0001)                 4.925938996118163E+10,      /* I = 92 */
(PID.TID 0000.0001)                 4.192037169898667E+10,      /* I = 93 */
(PID.TID 0000.0001)                 3.378518544304265E+10,      /* I = 94 */
(PID.TID 0000.0001)                 2.459906945574446E+10,      /* I = 95 */
(PID.TID 0000.0001)                 1.401900702259215E+10,      /* I = 96 */
(PID.TID 0000.0001)                 1.401900702255611E+10,      /* I = 97 */
(PID.TID 0000.0001)                 2.459906945574446E+10,      /* I = 98 */
(PID.TID 0000.0001)                 3.378518544307869E+10,      /* I = 99 */
(PID.TID 0000.0001)                 4.192037169898667E+10,      /* I =100 */
(PID.TID 0000.0001)                 4.925938996118163E+10,      /* I =101 */
(PID.TID 0000.0001)                 5.594154126607553E+10,      /* I =102 */
(PID.TID 0000.0001)                 6.203683527772524E+10,      /* I =103 */
(PID.TID 0000.0001)                 6.757541173817516E+10,      /* I =104 */
(PID.TID 0000.0001)                 7.256353271748119E+10,      /* I =105 */
(PID.TID 0000.0001)                 7.699293007098555E+10,      /* I =106 */
(PID.TID 0000.0001)                 8.084683449728902E+10,      /* I =107 */
(PID.TID 0000.0001)                 8.410423102796223E+10,      /* I =108 */
(PID.TID 0000.0001)                 8.674306976737517E+10,      /* I =109 */
(PID.TID 0000.0001)                 8.874277443041928E+10,      /* I =110 */
(PID.TID 0000.0001)                 9.008620045350865E+10,      /* I =111 */
(PID.TID 0000.0001)                 9.076111290418457E+10,      /* I =112 */
(PID.TID 0000.0001)                 9.076111290422060E+10,      /* I =113 */
(PID.TID 0000.0001)                 9.008620045354469E+10,      /* I =114 */
(PID.TID 0000.0001)                 8.874277443041928E+10,      /* I =115 */
(PID.TID 0000.0001)                 8.674306976741121E+10,      /* I =116 */
(PID.TID 0000.0001)                 8.410423102799828E+10,      /* I =117 */
(PID.TID 0000.0001)                 8.084683449728902E+10,      /* I =118 */
(PID.TID 0000.0001)                 7.699293007098555E+10,      /* I =119 */
(PID.TID 0000.0001)                 7.256353271748119E+10,      /* I =120 */
(PID.TID 0000.0001)                 6.757541173817516E+10,      /* I =121 */
(PID.TID 0000.0001)                 6.203683527772524E+10,      /* I =122 */
(PID.TID 0000.0001)                 5.594154126611157E+10,      /* I =123 */
(PID.TID 0000.0001)                 4.925938996118163E+10,      /* I =124 */
(PID.TID 0000.0001)                 4.192037169898667E+10,      /* I =125 */
(PID.TID 0000.0001)                 3.378518544304265E+10,      /* I =126 */
(PID.TID 0000.0001)                 2.459906945574446E+10,      /* I =127 */
(PID.TID 0000.0001)                 1.401900702259215E+10,      /* I =128 */
(PID.TID 0000.0001)                 1.401900702255611E+10,      /* I =129 */
(PID.TID 0000.0001)                 2.459906945574446E+10,      /* I =130 */
(PID.TID 0000.0001)                 3.378518544307869E+10,      /* I =131 */
(PID.TID 0000.0001)                 4.192037169898667E+10,      /* I =132 */
(PID.TID 0000.0001)                 4.925938996118163E+10,      /* I =133 */
(PID.TID 0000.0001)                 5.594154126607553E+10,      /* I =134 */
(PID.TID 0000.0001)                 6.203683527772524E+10,      /* I =135 */
(PID.TID 0000.0001)                 6.757541173817516E+10,      /* I =136 */
(PID.TID 0000.0001)                 7.256353271748119E+10,      /* I =137 */
(PID.TID 0000.0001)                 7.699293007098555E+10,      /* I =138 */
(PID.TID 0000.0001)                 8.084683449728902E+10,      /* I =139 */
(PID.TID 0000.0001)                 8.410423102796223E+10,      /* I =140 */
(PID.TID 0000.0001)                 8.674306976737517E+10,      /* I =141 */
(PID.TID 0000.0001)                 8.874277443041928E+10,      /* I =142 */
(PID.TID 0000.0001)                 9.008620045350865E+10,      /* I =143 */
(PID.TID 0000.0001)                 9.076111290418457E+10,      /* I =144 */
(PID.TID 0000.0001)                 9.076111290422060E+10,      /* I =145 */
(PID.TID 0000.0001)                 9.008620045354469E+10,      /* I =146 */
(PID.TID 0000.0001)                 8.874277443041928E+10,      /* I =147 */
(PID.TID 0000.0001)                 8.674306976741121E+10,      /* I =148 */
(PID.TID 0000.0001)                 8.410423102799828E+10,      /* I =149 */
(PID.TID 0000.0001)                 8.084683449728902E+10,      /* I =150 */
(PID.TID 0000.0001)                 7.699293007098555E+10,      /* I =151 */
(PID.TID 0000.0001)                 7.256353271748119E+10,      /* I =152 */
(PID.TID 0000.0001)                 6.757541173817516E+10,      /* I =153 */
(PID.TID 0000.0001)                 6.203683527772524E+10,      /* I =154 */
(PID.TID 0000.0001)                 5.594154126611157E+10,      /* I =155 */
(PID.TID 0000.0001)                 4.925938996118163E+10,      /* I =156 */
(PID.TID 0000.0001)                 4.192037169898667E+10,      /* I =157 */
(PID.TID 0000.0001)                 3.378518544304265E+10,      /* I =158 */
(PID.TID 0000.0001)                 2.459906945574446E+10,      /* I =159 */
(PID.TID 0000.0001)                 1.401900702259215E+10,      /* I =160 */
(PID.TID 0000.0001)                 1.401900702255611E+10,      /* I =161 */
(PID.TID 0000.0001)                 2.459906945574446E+10,      /* I =162 */
(PID.TID 0000.0001)                 3.378518544307869E+10,      /* I =163 */
(PID.TID 0000.0001)                 4.192037169898667E+10,      /* I =164 */
(PID.TID 0000.0001)                 4.925938996118163E+10,      /* I =165 */
(PID.TID 0000.0001)                 5.594154126607553E+10,      /* I =166 */
(PID.TID 0000.0001)                 6.203683527772524E+10,      /* I =167 */
(PID.TID 0000.0001)                 6.757541173817516E+10,      /* I =168 */
(PID.TID 0000.0001)                 7.256353271748119E+10,      /* I =169 */
(PID.TID 0000.0001)                 7.699293007098555E+10,      /* I =170 */
(PID.TID 0000.0001)                 8.084683449728902E+10,      /* I =171 */
(PID.TID 0000.0001)                 8.410423102796223E+10,      /* I =172 */
(PID.TID 0000.0001)                 8.674306976737517E+10,      /* I =173 */
(PID.TID 0000.0001)                 8.874277443041928E+10,      /* I =174 */
(PID.TID 0000.0001)                 9.008620045350865E+10,      /* I =175 */
(PID.TID 0000.0001)                 9.076111290418457E+10,      /* I =176 */
(PID.TID 0000.0001)                 9.076111290422060E+10,      /* I =177 */
(PID.TID 0000.0001)                 9.008620045354469E+10,      /* I =178 */
(PID.TID 0000.0001)                 8.874277443041928E+10,      /* I =179 */
(PID.TID 0000.0001)                 8.674306976741121E+10,      /* I =180 */
(PID.TID 0000.0001)                 8.410423102799828E+10,      /* I =181 */
(PID.TID 0000.0001)                 8.084683449728902E+10,      /* I =182 */
(PID.TID 0000.0001)                 7.699293007098555E+10,      /* I =183 */
(PID.TID 0000.0001)                 7.256353271748119E+10,      /* I =184 */
(PID.TID 0000.0001)                 6.757541173817516E+10,      /* I =185 */
(PID.TID 0000.0001)                 6.203683527772524E+10,      /* I =186 */
(PID.TID 0000.0001)                 5.594154126611157E+10,      /* I =187 */
(PID.TID 0000.0001)                 4.925938996118163E+10,      /* I =188 */
(PID.TID 0000.0001)                 4.192037169898667E+10,      /* I =189 */
(PID.TID 0000.0001)                 3.378518544304265E+10,      /* I =190 */
(PID.TID 0000.0001)                 2.459906945574446E+10,      /* I =191 */
(PID.TID 0000.0001)                 1.401900702259215E+10       /* I =192 */
(PID.TID 0000.0001)     ;
(PID.TID 0000.0001) rA =  /* rA(1,:,1,:) ( m - cartesian, degrees - spherical ) */
(PID.TID 0000.0001)                 1.401900702255611E+10,      /* J =  1 */
(PID.TID 0000.0001)                 2.459906945574446E+10,      /* J =  2 */
(PID.TID 0000.0001)                 3.378518544307869E+10,      /* J =  3 */
(PID.TID 0000.0001)                 4.192037169898667E+10,      /* J =  4 */
(PID.TID 0000.0001)                 4.925938996118163E+10,      /* J =  5 */
(PID.TID 0000.0001)                 5.594154126607553E+10,      /* J =  6 */
(PID.TID 0000.0001)                 6.203683527776127E+10,      /* J =  7 */
(PID.TID 0000.0001)                 6.757541173817516E+10,      /* J =  8 */
(PID.TID 0000.0001)                 7.256353271748119E+10,      /* J =  9 */
(PID.TID 0000.0001)                 7.699293007098555E+10,      /* J = 10 */
(PID.TID 0000.0001)                 8.084683449728902E+10,      /* J = 11 */
(PID.TID 0000.0001)                 8.410423102799828E+10,      /* J = 12 */
(PID.TID 0000.0001)                 8.674306976737517E+10,      /* J = 13 */
(PID.TID 0000.0001)                 8.874277443041928E+10,      /* J = 14 */
(PID.TID 0000.0001)                 9.008620045350865E+10,      /* J = 15 */
(PID.TID 0000.0001)                 9.076111290418457E+10,      /* J = 16 */
(PID.TID 0000.0001)                 9.076111290422060E+10,      /* J = 17 */
(PID.TID 0000.0001)                 9.008620045354469E+10,      /* J = 18 */
(PID.TID 0000.0001)                 8.874277443041928E+10,      /* J = 19 */
(PID.TID 0000.0001)                 8.674306976737517E+10,      /* J = 20 */
(PID.TID 0000.0001)                 8.410423102799828E+10,      /* J = 21 */
(PID.TID 0000.0001)                 8.084683449728902E+10,      /* J = 22 */
(PID.TID 0000.0001)                 7.699293007098555E+10,      /* J = 23 */
(PID.TID 0000.0001)                 7.256353271748119E+10,      /* J = 24 */
(PID.TID 0000.0001)                 6.757541173817516E+10,      /* J = 25 */
(PID.TID 0000.0001)                 6.203683527772524E+10,      /* J = 26 */
(PID.TID 0000.0001)                 5.594154126607553E+10,      /* J = 27 */
(PID.TID 0000.0001)                 4.925938996118163E+10,      /* J = 28 */
(PID.TID 0000.0001)                 4.192037169898667E+10,      /* J = 29 */
(PID.TID 0000.0001)                 3.378518544307869E+10,      /* J = 30 */
(PID.TID 0000.0001)                 2.459906945574446E+10,      /* J = 31 */
(PID.TID 0000.0001)                 1.401900702259215E+10       /* J = 32 */
(PID.TID 0000.0001)     ;
(PID.TID 0000.0001) rAw =  /* rAw(:,1,:,1) ( m - cartesian, degrees - spherical ) */
(PID.TID 0000.0001)                 1.216690346714270E+10,      /* I =  1 */
(PID.TID 0000.0001)                 1.974052138506315E+10,      /* I =  2 */
(PID.TID 0000.0001)                 2.943712825252015E+10,      /* I =  3 */
(PID.TID 0000.0001)                 3.801790263324359E+10,      /* I =  4 */
(PID.TID 0000.0001)                 4.571243814189866E+10,      /* I =  5 */
(PID.TID 0000.0001)                 5.269930713599979E+10,      /* I =  6 */
(PID.TID 0000.0001)                 5.907428494299063E+10,      /* I =  7 */
(PID.TID 0000.0001)                 6.488320895111514E+10,      /* I =  8 */
(PID.TID 0000.0001)                 7.014205907741882E+10,      /* I =  9 */
(PID.TID 0000.0001)                 7.484854821847499E+10,      /* I = 10 */
(PID.TID 0000.0001)                 7.898934631431560E+10,      /* I = 11 */
(PID.TID 0000.0001)                 8.254500894894537E+10,      /* I = 12 */
(PID.TID 0000.0001)                 8.549360686473492E+10,      /* I = 13 */
(PID.TID 0000.0001)                 8.781353403175085E+10,      /* I = 14 */
(PID.TID 0000.0001)                 8.948571540392021E+10,      /* I = 15 */
(PID.TID 0000.0001)                 9.049530583086168E+10,      /* I = 16 */
(PID.TID 0000.0001)                 9.083293515008307E+10,      /* I = 17 */
(PID.TID 0000.0001)                 9.049530583087070E+10,      /* I = 18 */
(PID.TID 0000.0001)                 8.948571540391121E+10,      /* I = 19 */
(PID.TID 0000.0001)                 8.781353403174185E+10,      /* I = 20 */
(PID.TID 0000.0001)                 8.549360686467184E+10,      /* I = 21 */
(PID.TID 0000.0001)                 8.254500894890933E+10,      /* I = 22 */
(PID.TID 0000.0001)                 7.898934631434262E+10,      /* I = 23 */
(PID.TID 0000.0001)                 7.484854821844795E+10,      /* I = 24 */
(PID.TID 0000.0001)                 7.014205907742783E+10,      /* I = 25 */
(PID.TID 0000.0001)                 6.488320895111514E+10,      /* I = 26 */
(PID.TID 0000.0001)                 5.907428494299063E+10,      /* I = 27 */
(PID.TID 0000.0001)                 5.269930713599078E+10,      /* I = 28 */
(PID.TID 0000.0001)                 4.571243814190767E+10,      /* I = 29 */
(PID.TID 0000.0001)                 3.801790263325260E+10,      /* I = 30 */
(PID.TID 0000.0001)                 2.943712825251114E+10,      /* I = 31 */
(PID.TID 0000.0001)                 1.974052138509018E+10,      /* I = 32 */
(PID.TID 0000.0001)                 1.216690346714270E+10,      /* I = 33 */
(PID.TID 0000.0001)                 1.974052138506315E+10,      /* I = 34 */
(PID.TID 0000.0001)                 2.943712825252015E+10,      /* I = 35 */
(PID.TID 0000.0001)                 3.801790263324359E+10,      /* I = 36 */
(PID.TID 0000.0001)                 4.571243814189866E+10,      /* I = 37 */
(PID.TID 0000.0001)                 5.269930713599979E+10,      /* I = 38 */
(PID.TID 0000.0001)                 5.907428494299063E+10,      /* I = 39 */
(PID.TID 0000.0001)                 6.488320895111514E+10,      /* I = 40 */
(PID.TID 0000.0001)                 7.014205907741882E+10,      /* I = 41 */
(PID.TID 0000.0001)                 7.484854821847499E+10,      /* I = 42 */
(PID.TID 0000.0001)                 7.898934631431560E+10,      /* I = 43 */
(PID.TID 0000.0001)                 8.254500894894537E+10,      /* I = 44 */
(PID.TID 0000.0001)                 8.549360686473492E+10,      /* I = 45 */
(PID.TID 0000.0001)                 8.781353403175085E+10,      /* I = 46 */
(PID.TID 0000.0001)                 8.948571540392021E+10,      /* I = 47 */
(PID.TID 0000.0001)                 9.049530583086168E+10,      /* I = 48 */
(PID.TID 0000.0001)                 9.083293515008307E+10,      /* I = 49 */
(PID.TID 0000.0001)                 9.049530583087070E+10,      /* I = 50 */
(PID.TID 0000.0001)                 8.948571540391121E+10,      /* I = 51 */
(PID.TID 0000.0001)                 8.781353403174185E+10,      /* I = 52 */
(PID.TID 0000.0001)                 8.549360686467184E+10,      /* I = 53 */
(PID.TID 0000.0001)                 8.254500894890933E+10,      /* I = 54 */
(PID.TID 0000.0001)                 7.898934631434262E+10,      /* I = 55 */
(PID.TID 0000.0001)                 7.484854821844795E+10,      /* I = 56 */
(PID.TID 0000.0001)                 7.014205907742783E+10,      /* I = 57 */
(PID.TID 0000.0001)                 6.488320895111514E+10,      /* I = 58 */
(PID.TID 0000.0001)                 5.907428494299063E+10,      /* I = 59 */
(PID.TID 0000.0001)                 5.269930713599078E+10,      /* I = 60 */
(PID.TID 0000.0001)                 4.571243814190767E+10,      /* I = 61 */
(PID.TID 0000.0001)                 3.801790263325260E+10,      /* I = 62 */
(PID.TID 0000.0001)                 2.943712825251114E+10,      /* I = 63 */
(PID.TID 0000.0001)                 1.974052138509018E+10,      /* I = 64 */
(PID.TID 0000.0001)                 1.216690346714270E+10,      /* I = 65 */
(PID.TID 0000.0001)                 1.974052138506315E+10,      /* I = 66 */
(PID.TID 0000.0001)                 2.943712825252015E+10,      /* I = 67 */
(PID.TID 0000.0001)                 3.801790263324359E+10,      /* I = 68 */
(PID.TID 0000.0001)                 4.571243814189866E+10,      /* I = 69 */
(PID.TID 0000.0001)                 5.269930713599979E+10,      /* I = 70 */
(PID.TID 0000.0001)                 5.907428494299063E+10,      /* I = 71 */
(PID.TID 0000.0001)                 6.488320895111514E+10,      /* I = 72 */
(PID.TID 0000.0001)                 7.014205907741882E+10,      /* I = 73 */
(PID.TID 0000.0001)                 7.484854821847499E+10,      /* I = 74 */
(PID.TID 0000.0001)                 7.898934631431560E+10,      /* I = 75 */
(PID.TID 0000.0001)                 8.254500894894537E+10,      /* I = 76 */
(PID.TID 0000.0001)                 8.549360686473492E+10,      /* I = 77 */
(PID.TID 0000.0001)                 8.781353403175085E+10,      /* I = 78 */
(PID.TID 0000.0001)                 8.948571540392021E+10,      /* I = 79 */
(PID.TID 0000.0001)                 9.049530583086168E+10,      /* I = 80 */
(PID.TID 0000.0001)                 9.083293515008307E+10,      /* I = 81 */
(PID.TID 0000.0001)                 9.049530583087070E+10,      /* I = 82 */
(PID.TID 0000.0001)                 8.948571540391121E+10,      /* I = 83 */
(PID.TID 0000.0001)                 8.781353403174185E+10,      /* I = 84 */
(PID.TID 0000.0001)                 8.549360686467184E+10,      /* I = 85 */
(PID.TID 0000.0001)                 8.254500894890933E+10,      /* I = 86 */
(PID.TID 0000.0001)                 7.898934631434262E+10,      /* I = 87 */
(PID.TID 0000.0001)                 7.484854821844795E+10,      /* I = 88 */
(PID.TID 0000.0001)                 7.014205907742783E+10,      /* I = 89 */
(PID.TID 0000.0001)                 6.488320895111514E+10,      /* I = 90 */
(PID.TID 0000.0001)                 5.907428494299063E+10,      /* I = 91 */
(PID.TID 0000.0001)                 5.269930713599078E+10,      /* I = 92 */
(PID.TID 0000.0001)                 4.571243814190767E+10,      /* I = 93 */
(PID.TID 0000.0001)                 3.801790263325260E+10,      /* I = 94 */
(PID.TID 0000.0001)                 2.943712825251114E+10,      /* I = 95 */
(PID.TID 0000.0001)                 1.974052138509018E+10,      /* I = 96 */
(PID.TID 0000.0001)                 1.216690346714270E+10,      /* I = 97 */
(PID.TID 0000.0001)                 1.974052138506315E+10,      /* I = 98 */
(PID.TID 0000.0001)                 2.943712825252015E+10,      /* I = 99 */
(PID.TID 0000.0001)                 3.801790263324359E+10,      /* I =100 */
(PID.TID 0000.0001)                 4.571243814189866E+10,      /* I =101 */
(PID.TID 0000.0001)                 5.269930713599979E+10,      /* I =102 */
(PID.TID 0000.0001)                 5.907428494299063E+10,      /* I =103 */
(PID.TID 0000.0001)                 6.488320895111514E+10,      /* I =104 */
(PID.TID 0000.0001)                 7.014205907741882E+10,      /* I =105 */
(PID.TID 0000.0001)                 7.484854821847499E+10,      /* I =106 */
(PID.TID 0000.0001)                 7.898934631431560E+10,      /* I =107 */
(PID.TID 0000.0001)                 8.254500894894537E+10,      /* I =108 */
(PID.TID 0000.0001)                 8.549360686473492E+10,      /* I =109 */
(PID.TID 0000.0001)                 8.781353403175085E+10,      /* I =110 */
(PID.TID 0000.0001)                 8.948571540392021E+10,      /* I =111 */
(PID.TID 0000.0001)                 9.049530583086168E+10,      /* I =112 */
(PID.TID 0000.0001)                 9.083293515008307E+10,      /* I =113 */
(PID.TID 0000.0001)                 9.049530583087070E+10,      /* I =114 */
(PID.TID 0000.0001)                 8.948571540391121E+10,      /* I =115 */
(PID.TID 0000.0001)                 8.781353403174185E+10,      /* I =116 */
(PID.TID 0000.0001)                 8.549360686467184E+10,      /* I =117 */
(PID.TID 0000.0001)                 8.254500894890933E+10,      /* I =118 */
(PID.TID 0000.0001)                 7.898934631434262E+10,      /* I =119 */
(PID.TID 0000.0001)                 7.484854821844795E+10,      /* I =120 */
(PID.TID 0000.0001)                 7.014205907742783E+10,      /* I =121 */
(PID.TID 0000.0001)                 6.488320895111514E+10,      /* I =122 */
(PID.TID 0000.0001)                 5.907428494299063E+10,      /* I =123 */
(PID.TID 0000.0001)                 5.269930713599078E+10,      /* I =124 */
(PID.TID 0000.0001)                 4.571243814190767E+10,      /* I =125 */
(PID.TID 0000.0001)                 3.801790263325260E+10,      /* I =126 */
(PID.TID 0000.0001)                 2.943712825251114E+10,      /* I =127 */
(PID.TID 0000.0001)                 1.974052138509018E+10,      /* I =128 */
(PID.TID 0000.0001)                 1.216690346714270E+10,      /* I =129 */
(PID.TID 0000.0001)                 1.974052138506315E+10,      /* I =130 */
(PID.TID 0000.0001)                 2.943712825252015E+10,      /* I =131 */
(PID.TID 0000.0001)                 3.801790263324359E+10,      /* I =132 */
(PID.TID 0000.0001)                 4.571243814189866E+10,      /* I =133 */
(PID.TID 0000.0001)                 5.269930713599979E+10,      /* I =134 */
(PID.TID 0000.0001)                 5.907428494299063E+10,      /* I =135 */
(PID.TID 0000.0001)                 6.488320895111514E+10,      /* I =136 */
(PID.TID 0000.0001)                 7.014205907741882E+10,      /* I =137 */
(PID.TID 0000.0001)                 7.484854821847499E+10,      /* I =138 */
(PID.TID 0000.0001)                 7.898934631431560E+10,      /* I =139 */
(PID.TID 0000.0001)                 8.254500894894537E+10,      /* I =140 */
(PID.TID 0000.0001)                 8.549360686473492E+10,      /* I =141 */
(PID.TID 0000.0001)                 8.781353403175085E+10,      /* I =142 */
(PID.TID 0000.0001)                 8.948571540392021E+10,      /* I =143 */
(PID.TID 0000.0001)                 9.049530583086168E+10,      /* I =144 */
(PID.TID 0000.0001)                 9.083293515008307E+10,      /* I =145 */
(PID.TID 0000.0001)                 9.049530583087070E+10,      /* I =146 */
(PID.TID 0000.0001)                 8.948571540391121E+10,      /* I =147 */
(PID.TID 0000.0001)                 8.781353403174185E+10,      /* I =148 */
(PID.TID 0000.0001)                 8.549360686467184E+10,      /* I =149 */
(PID.TID 0000.0001)                 8.254500894890933E+10,      /* I =150 */
(PID.TID 0000.0001)                 7.898934631434262E+10,      /* I =151 */
(PID.TID 0000.0001)                 7.484854821844795E+10,      /* I =152 */
(PID.TID 0000.0001)                 7.014205907742783E+10,      /* I =153 */
(PID.TID 0000.0001)                 6.488320895111514E+10,      /* I =154 */
(PID.TID 0000.0001)                 5.907428494299063E+10,      /* I =155 */
(PID.TID 0000.0001)                 5.269930713599078E+10,      /* I =156 */
(PID.TID 0000.0001)                 4.571243814190767E+10,      /* I =157 */
(PID.TID 0000.0001)                 3.801790263325260E+10,      /* I =158 */
(PID.TID 0000.0001)                 2.943712825251114E+10,      /* I =159 */
(PID.TID 0000.0001)                 1.974052138509018E+10,      /* I =160 */
(PID.TID 0000.0001)                 1.216690346714270E+10,      /* I =161 */
(PID.TID 0000.0001)                 1.974052138506315E+10,      /* I =162 */
(PID.TID 0000.0001)                 2.943712825252015E+10,      /* I =163 */
(PID.TID 0000.0001)                 3.801790263324359E+10,      /* I =164 */
(PID.TID 0000.0001)                 4.571243814189866E+10,      /* I =165 */
(PID.TID 0000.0001)                 5.269930713599979E+10,      /* I =166 */
(PID.TID 0000.0001)                 5.907428494299063E+10,      /* I =167 */
(PID.TID 0000.0001)                 6.488320895111514E+10,      /* I =168 */
(PID.TID 0000.0001)                 7.014205907741882E+10,      /* I =169 */
(PID.TID 0000.0001)                 7.484854821847499E+10,      /* I =170 */
(PID.TID 0000.0001)                 7.898934631431560E+10,      /* I =171 */
(PID.TID 0000.0001)                 8.254500894894537E+10,      /* I =172 */
(PID.TID 0000.0001)                 8.549360686473492E+10,      /* I =173 */
(PID.TID 0000.0001)                 8.781353403175085E+10,      /* I =174 */
(PID.TID 0000.0001)                 8.948571540392021E+10,      /* I =175 */
(PID.TID 0000.0001)                 9.049530583086168E+10,      /* I =176 */
(PID.TID 0000.0001)                 9.083293515008307E+10,      /* I =177 */
(PID.TID 0000.0001)                 9.049530583087070E+10,      /* I =178 */
(PID.TID 0000.0001)                 8.948571540391121E+10,      /* I =179 */
(PID.TID 0000.0001)                 8.781353403174185E+10,      /* I =180 */
(PID.TID 0000.0001)                 8.549360686467184E+10,      /* I =181 */
(PID.TID 0000.0001)                 8.254500894890933E+10,      /* I =182 */
(PID.TID 0000.0001)                 7.898934631434262E+10,      /* I =183 */
(PID.TID 0000.0001)                 7.484854821844795E+10,      /* I =184 */
(PID.TID 0000.0001)                 7.014205907742783E+10,      /* I =185 */
(PID.TID 0000.0001)                 6.488320895111514E+10,      /* I =186 */
(PID.TID 0000.0001)                 5.907428494299063E+10,      /* I =187 */
(PID.TID 0000.0001)                 5.269930713599078E+10,      /* I =188 */
(PID.TID 0000.0001)                 4.571243814190767E+10,      /* I =189 */
(PID.TID 0000.0001)                 3.801790263325260E+10,      /* I =190 */
(PID.TID 0000.0001)                 2.943712825251114E+10,      /* I =191 */
(PID.TID 0000.0001)                 1.974052138509018E+10       /* I =192 */
(PID.TID 0000.0001)     ;
(PID.TID 0000.0001) rAw =  /* rAw(1,:,1,:) ( m - cartesian, degrees - spherical ) */
(PID.TID 0000.0001)                 1.216690346714270E+10,      /* J =  1 */
(PID.TID 0000.0001)                 2.390126200743558E+10,      /* J =  2 */
(PID.TID 0000.0001)                 3.341968103208270E+10,      /* J =  3 */
(PID.TID 0000.0001)                 4.168532893152940E+10,      /* J =  4 */
(PID.TID 0000.0001)                 4.909074590409593E+10,      /* J =  5 */
(PID.TID 0000.0001)                 5.581203765722643E+10,      /* J =  6 */
(PID.TID 0000.0001)                 6.193257577506788E+10,      /* J =  7 */
(PID.TID 0000.0001)                 6.748840226738273E+10,      /* J =  8 */
(PID.TID 0000.0001)                 7.248875782324815E+10,      /* J =  9 */
(PID.TID 0000.0001)                 7.692702995909871E+10,      /* J = 10 */
(PID.TID 0000.0001)                 8.078743937057304E+10,      /* J = 11 */
(PID.TID 0000.0001)                 8.404959656062837E+10,      /* J = 12 */
(PID.TID 0000.0001)                 8.669186205742539E+10,      /* J = 13 */
(PID.TID 0000.0001)                 8.869393350723613E+10,      /* J = 14 */
(PID.TID 0000.0001)                 9.003884657168852E+10,      /* J = 15 */
(PID.TID 0000.0001)     2 @  9.071447638299399E+10,             /* J = 16: 17 */
(PID.TID 0000.0001)                 9.003884657168852E+10,      /* J = 18 */
(PID.TID 0000.0001)                 8.869393350723613E+10,      /* J = 19 */
(PID.TID 0000.0001)                 8.669186205742539E+10,      /* J = 20 */
(PID.TID 0000.0001)                 8.404959656062837E+10,      /* J = 21 */
(PID.TID 0000.0001)                 8.078743937057304E+10,      /* J = 22 */
(PID.TID 0000.0001)                 7.692702995909871E+10,      /* J = 23 */
(PID.TID 0000.0001)                 7.248875782324815E+10,      /* J = 24 */
(PID.TID 0000.0001)                 6.748840226738273E+10,      /* J = 25 */
(PID.TID 0000.0001)                 6.193257577506788E+10,      /* J = 26 */
(PID.TID 0000.0001)                 5.581203765722643E+10,      /* J = 27 */
(PID.TID 0000.0001)                 4.909074590409593E+10,      /* J = 28 */
(PID.TID 0000.0001)                 4.168532893152940E+10,      /* J = 29 */
(PID.TID 0000.0001)                 3.341968103208270E+10,      /* J = 30 */
(PID.TID 0000.0001)                 2.390126200743558E+10,      /* J = 31 */
(PID.TID 0000.0001)                 1.216690346714270E+10       /* J = 32 */
(PID.TID 0000.0001)     ;
(PID.TID 0000.0001) rAs =  /* rAs(:,1,:,1) ( m - cartesian, degrees - spherical ) */
(PID.TID 0000.0001)                 1.216690346714270E+10,      /* I =  1 */
(PID.TID 0000.0001)                 2.390126200743558E+10,      /* I =  2 */
(PID.TID 0000.0001)                 3.341968103208270E+10,      /* I =  3 */
(PID.TID 0000.0001)                 4.168532893152940E+10,      /* I =  4 */
(PID.TID 0000.0001)                 4.909074590409593E+10,      /* I =  5 */
(PID.TID 0000.0001)                 5.581203765722643E+10,      /* I =  6 */
(PID.TID 0000.0001)                 6.193257577506788E+10,      /* I =  7 */
(PID.TID 0000.0001)                 6.748840226738273E+10,      /* I =  8 */
(PID.TID 0000.0001)                 7.248875782324815E+10,      /* I =  9 */
(PID.TID 0000.0001)                 7.692702995909871E+10,      /* I = 10 */
(PID.TID 0000.0001)                 8.078743937057304E+10,      /* I = 11 */
(PID.TID 0000.0001)                 8.404959656062837E+10,      /* I = 12 */
(PID.TID 0000.0001)                 8.669186205742539E+10,      /* I = 13 */
(PID.TID 0000.0001)                 8.869393350723613E+10,      /* I = 14 */
(PID.TID 0000.0001)                 9.003884657168852E+10,      /* I = 15 */
(PID.TID 0000.0001)     2 @  9.071447638299399E+10,             /* I = 16: 17 */
(PID.TID 0000.0001)                 9.003884657168852E+10,      /* I = 18 */
(PID.TID 0000.0001)                 8.869393350723613E+10,      /* I = 19 */
(PID.TID 0000.0001)                 8.669186205742539E+10,      /* I = 20 */
(PID.TID 0000.0001)                 8.404959656062837E+10,      /* I = 21 */
(PID.TID 0000.0001)                 8.078743937057304E+10,      /* I = 22 */
(PID.TID 0000.0001)                 7.692702995909871E+10,      /* I = 23 */
(PID.TID 0000.0001)                 7.248875782324815E+10,      /* I = 24 */
(PID.TID 0000.0001)                 6.748840226738273E+10,      /* I = 25 */
(PID.TID 0000.0001)                 6.193257577506788E+10,      /* I = 26 */
(PID.TID 0000.0001)                 5.581203765722643E+10,      /* I = 27 */
(PID.TID 0000.0001)                 4.909074590409593E+10,      /* I = 28 */
(PID.TID 0000.0001)                 4.168532893152940E+10,      /* I = 29 */
(PID.TID 0000.0001)                 3.341968103208270E+10,      /* I = 30 */
(PID.TID 0000.0001)                 2.390126200743558E+10,      /* I = 31 */
(PID.TID 0000.0001)     2 @  1.216690346714270E+10,             /* I = 32: 33 */
(PID.TID 0000.0001)                 2.390126200743558E+10,      /* I = 34 */
(PID.TID 0000.0001)                 3.341968103208270E+10,      /* I = 35 */
(PID.TID 0000.0001)                 4.168532893152940E+10,      /* I = 36 */
(PID.TID 0000.0001)                 4.909074590409593E+10,      /* I = 37 */
(PID.TID 0000.0001)                 5.581203765722643E+10,      /* I = 38 */
(PID.TID 0000.0001)                 6.193257577506788E+10,      /* I = 39 */
(PID.TID 0000.0001)                 6.748840226738273E+10,      /* I = 40 */
(PID.TID 0000.0001)                 7.248875782324815E+10,      /* I = 41 */
(PID.TID 0000.0001)                 7.692702995909871E+10,      /* I = 42 */
(PID.TID 0000.0001)                 8.078743937057304E+10,      /* I = 43 */
(PID.TID 0000.0001)                 8.404959656062837E+10,      /* I = 44 */
(PID.TID 0000.0001)                 8.669186205742539E+10,      /* I = 45 */
(PID.TID 0000.0001)                 8.869393350723613E+10,      /* I = 46 */
(PID.TID 0000.0001)                 9.003884657168852E+10,      /* I = 47 */
(PID.TID 0000.0001)     2 @  9.071447638299399E+10,             /* I = 48: 49 */
(PID.TID 0000.0001)                 9.003884657168852E+10,      /* I = 50 */
(PID.TID 0000.0001)                 8.869393350723613E+10,      /* I = 51 */
(PID.TID 0000.0001)                 8.669186205742539E+10,      /* I = 52 */
(PID.TID 0000.0001)                 8.404959656062837E+10,      /* I = 53 */
(PID.TID 0000.0001)                 8.078743937057304E+10,      /* I = 54 */
(PID.TID 0000.0001)                 7.692702995909871E+10,      /* I = 55 */
(PID.TID 0000.0001)                 7.248875782324815E+10,      /* I = 56 */
(PID.TID 0000.0001)                 6.748840226738273E+10,      /* I = 57 */
(PID.TID 0000.0001)                 6.193257577506788E+10,      /* I = 58 */
(PID.TID 0000.0001)                 5.581203765722643E+10,      /* I = 59 */
(PID.TID 0000.0001)                 4.909074590409593E+10,      /* I = 60 */
(PID.TID 0000.0001)                 4.168532893152940E+10,      /* I = 61 */
(PID.TID 0000.0001)                 3.341968103208270E+10,      /* I = 62 */
(PID.TID 0000.0001)                 2.390126200743558E+10,      /* I = 63 */
(PID.TID 0000.0001)     2 @  1.216690346714270E+10,             /* I = 64: 65 */
(PID.TID 0000.0001)                 2.390126200743558E+10,      /* I = 66 */
(PID.TID 0000.0001)                 3.341968103208270E+10,      /* I = 67 */
(PID.TID 0000.0001)                 4.168532893152940E+10,      /* I = 68 */
(PID.TID 0000.0001)                 4.909074590409593E+10,      /* I = 69 */
(PID.TID 0000.0001)                 5.581203765722643E+10,      /* I = 70 */
(PID.TID 0000.0001)                 6.193257577506788E+10,      /* I = 71 */
(PID.TID 0000.0001)                 6.748840226738273E+10,      /* I = 72 */
(PID.TID 0000.0001)                 7.248875782324815E+10,      /* I = 73 */
(PID.TID 0000.0001)                 7.692702995909871E+10,      /* I = 74 */
(PID.TID 0000.0001)                 8.078743937057304E+10,      /* I = 75 */
(PID.TID 0000.0001)                 8.404959656062837E+10,      /* I = 76 */
(PID.TID 0000.0001)                 8.669186205742539E+10,      /* I = 77 */
(PID.TID 0000.0001)                 8.869393350723613E+10,      /* I = 78 */
(PID.TID 0000.0001)                 9.003884657168852E+10,      /* I = 79 */
(PID.TID 0000.0001)     2 @  9.071447638299399E+10,             /* I = 80: 81 */
(PID.TID 0000.0001)                 9.003884657168852E+10,      /* I = 82 */
(PID.TID 0000.0001)                 8.869393350723613E+10,      /* I = 83 */
(PID.TID 0000.0001)                 8.669186205742539E+10,      /* I = 84 */
(PID.TID 0000.0001)                 8.404959656062837E+10,      /* I = 85 */
(PID.TID 0000.0001)                 8.078743937057304E+10,      /* I = 86 */
(PID.TID 0000.0001)                 7.692702995909871E+10,      /* I = 87 */
(PID.TID 0000.0001)                 7.248875782324815E+10,      /* I = 88 */
(PID.TID 0000.0001)                 6.748840226738273E+10,      /* I = 89 */
(PID.TID 0000.0001)                 6.193257577506788E+10,      /* I = 90 */
(PID.TID 0000.0001)                 5.581203765722643E+10,      /* I = 91 */
(PID.TID 0000.0001)                 4.909074590409593E+10,      /* I = 92 */
(PID.TID 0000.0001)                 4.168532893152940E+10,      /* I = 93 */
(PID.TID 0000.0001)                 3.341968103208270E+10,      /* I = 94 */
(PID.TID 0000.0001)                 2.390126200743558E+10,      /* I = 95 */
(PID.TID 0000.0001)     2 @  1.216690346714270E+10,             /* I = 96: 97 */
(PID.TID 0000.0001)                 2.390126200743558E+10,      /* I = 98 */
(PID.TID 0000.0001)                 3.341968103208270E+10,      /* I = 99 */
(PID.TID 0000.0001)                 4.168532893152940E+10,      /* I =100 */
(PID.TID 0000.0001)                 4.909074590409593E+10,      /* I =101 */
(PID.TID 0000.0001)                 5.581203765722643E+10,      /* I =102 */
(PID.TID 0000.0001)                 6.193257577506788E+10,      /* I =103 */
(PID.TID 0000.0001)                 6.748840226738273E+10,      /* I =104 */
(PID.TID 0000.0001)                 7.248875782324815E+10,      /* I =105 */
(PID.TID 0000.0001)                 7.692702995909871E+10,      /* I =106 */
(PID.TID 0000.0001)                 8.078743937057304E+10,      /* I =107 */
(PID.TID 0000.0001)                 8.404959656062837E+10,      /* I =108 */
(PID.TID 0000.0001)                 8.669186205742539E+10,      /* I =109 */
(PID.TID 0000.0001)                 8.869393350723613E+10,      /* I =110 */
(PID.TID 0000.0001)                 9.003884657168852E+10,      /* I =111 */
(PID.TID 0000.0001)     2 @  9.071447638299399E+10,             /* I =112:113 */
(PID.TID 0000.0001)                 9.003884657168852E+10,      /* I =114 */
(PID.TID 0000.0001)                 8.869393350723613E+10,      /* I =115 */
(PID.TID 0000.0001)                 8.669186205742539E+10,      /* I =116 */
(PID.TID 0000.0001)                 8.404959656062837E+10,      /* I =117 */
(PID.TID 0000.0001)                 8.078743937057304E+10,      /* I =118 */
(PID.TID 0000.0001)                 7.692702995909871E+10,      /* I =119 */
(PID.TID 0000.0001)                 7.248875782324815E+10,      /* I =120 */
(PID.TID 0000.0001)                 6.748840226738273E+10,      /* I =121 */
(PID.TID 0000.0001)                 6.193257577506788E+10,      /* I =122 */
(PID.TID 0000.0001)                 5.581203765722643E+10,      /* I =123 */
(PID.TID 0000.0001)                 4.909074590409593E+10,      /* I =124 */
(PID.TID 0000.0001)                 4.168532893152940E+10,      /* I =125 */
(PID.TID 0000.0001)                 3.341968103208270E+10,      /* I =126 */
(PID.TID 0000.0001)                 2.390126200743558E+10,      /* I =127 */
(PID.TID 0000.0001)     2 @  1.216690346714270E+10,             /* I =128:129 */
(PID.TID 0000.0001)                 2.390126200743558E+10,      /* I =130 */
(PID.TID 0000.0001)                 3.341968103208270E+10,      /* I =131 */
(PID.TID 0000.0001)                 4.168532893152940E+10,      /* I =132 */
(PID.TID 0000.0001)                 4.909074590409593E+10,      /* I =133 */
(PID.TID 0000.0001)                 5.581203765722643E+10,      /* I =134 */
(PID.TID 0000.0001)                 6.193257577506788E+10,      /* I =135 */
(PID.TID 0000.0001)                 6.748840226738273E+10,      /* I =136 */
(PID.TID 0000.0001)                 7.248875782324815E+10,      /* I =137 */
(PID.TID 0000.0001)                 7.692702995909871E+10,      /* I =138 */
(PID.TID 0000.0001)                 8.078743937057304E+10,      /* I =139 */
(PID.TID 0000.0001)                 8.404959656062837E+10,      /* I =140 */
(PID.TID 0000.0001)                 8.669186205742539E+10,      /* I =141 */
(PID.TID 0000.0001)                 8.869393350723613E+10,      /* I =142 */
(PID.TID 0000.0001)                 9.003884657168852E+10,      /* I =143 */
(PID.TID 0000.0001)     2 @  9.071447638299399E+10,             /* I =144:145 */
(PID.TID 0000.0001)                 9.003884657168852E+10,      /* I =146 */
(PID.TID 0000.0001)                 8.869393350723613E+10,      /* I =147 */
(PID.TID 0000.0001)                 8.669186205742539E+10,      /* I =148 */
(PID.TID 0000.0001)                 8.404959656062837E+10,      /* I =149 */
(PID.TID 0000.0001)                 8.078743937057304E+10,      /* I =150 */
(PID.TID 0000.0001)                 7.692702995909871E+10,      /* I =151 */
(PID.TID 0000.0001)                 7.248875782324815E+10,      /* I =152 */
(PID.TID 0000.0001)                 6.748840226738273E+10,      /* I =153 */
(PID.TID 0000.0001)                 6.193257577506788E+10,      /* I =154 */
(PID.TID 0000.0001)                 5.581203765722643E+10,      /* I =155 */
(PID.TID 0000.0001)                 4.909074590409593E+10,      /* I =156 */
(PID.TID 0000.0001)                 4.168532893152940E+10,      /* I =157 */
(PID.TID 0000.0001)                 3.341968103208270E+10,      /* I =158 */
(PID.TID 0000.0001)                 2.390126200743558E+10,      /* I =159 */
(PID.TID 0000.0001)     2 @  1.216690346714270E+10,             /* I =160:161 */
(PID.TID 0000.0001)                 2.390126200743558E+10,      /* I =162 */
(PID.TID 0000.0001)                 3.341968103208270E+10,      /* I =163 */
(PID.TID 0000.0001)                 4.168532893152940E+10,      /* I =164 */
(PID.TID 0000.0001)                 4.909074590409593E+10,      /* I =165 */
(PID.TID 0000.0001)                 5.581203765722643E+10,      /* I =166 */
(PID.TID 0000.0001)                 6.193257577506788E+10,      /* I =167 */
(PID.TID 0000.0001)                 6.748840226738273E+10,      /* I =168 */
(PID.TID 0000.0001)                 7.248875782324815E+10,      /* I =169 */
(PID.TID 0000.0001)                 7.692702995909871E+10,      /* I =170 */
(PID.TID 0000.0001)                 8.078743937057304E+10,      /* I =171 */
(PID.TID 0000.0001)                 8.404959656062837E+10,      /* I =172 */
(PID.TID 0000.0001)                 8.669186205742539E+10,      /* I =173 */
(PID.TID 0000.0001)                 8.869393350723613E+10,      /* I =174 */
(PID.TID 0000.0001)                 9.003884657168852E+10,      /* I =175 */
(PID.TID 0000.0001)     2 @  9.071447638299399E+10,             /* I =176:177 */
(PID.TID 0000.0001)                 9.003884657168852E+10,      /* I =178 */
(PID.TID 0000.0001)                 8.869393350723613E+10,      /* I =179 */
(PID.TID 0000.0001)                 8.669186205742539E+10,      /* I =180 */
(PID.TID 0000.0001)                 8.404959656062837E+10,      /* I =181 */
(PID.TID 0000.0001)                 8.078743937057304E+10,      /* I =182 */
(PID.TID 0000.0001)                 7.692702995909871E+10,      /* I =183 */
(PID.TID 0000.0001)                 7.248875782324815E+10,      /* I =184 */
(PID.TID 0000.0001)                 6.748840226738273E+10,      /* I =185 */
(PID.TID 0000.0001)                 6.193257577506788E+10,      /* I =186 */
(PID.TID 0000.0001)                 5.581203765722643E+10,      /* I =187 */
(PID.TID 0000.0001)                 4.909074590409593E+10,      /* I =188 */
(PID.TID 0000.0001)                 4.168532893152940E+10,      /* I =189 */
(PID.TID 0000.0001)                 3.341968103208270E+10,      /* I =190 */
(PID.TID 0000.0001)                 2.390126200743558E+10,      /* I =191 */
(PID.TID 0000.0001)                 1.216690346714270E+10       /* I =192 */
(PID.TID 0000.0001)     ;
(PID.TID 0000.0001) rAs =  /* rAs(1,:,1,:) ( m - cartesian, degrees - spherical ) */
(PID.TID 0000.0001)                 1.216690346714270E+10,      /* J =  1 */
(PID.TID 0000.0001)                 1.974052138506315E+10,      /* J =  2 */
(PID.TID 0000.0001)                 2.943712825252015E+10,      /* J =  3 */
(PID.TID 0000.0001)                 3.801790263324359E+10,      /* J =  4 */
(PID.TID 0000.0001)                 4.571243814189866E+10,      /* J =  5 */
(PID.TID 0000.0001)                 5.269930713599979E+10,      /* J =  6 */
(PID.TID 0000.0001)                 5.907428494299063E+10,      /* J =  7 */
(PID.TID 0000.0001)                 6.488320895111514E+10,      /* J =  8 */
(PID.TID 0000.0001)                 7.014205907741882E+10,      /* J =  9 */
(PID.TID 0000.0001)                 7.484854821847499E+10,      /* J = 10 */
(PID.TID 0000.0001)                 7.898934631431560E+10,      /* J = 11 */
(PID.TID 0000.0001)                 8.254500894894537E+10,      /* J = 12 */
(PID.TID 0000.0001)                 8.549360686473492E+10,      /* J = 13 */
(PID.TID 0000.0001)                 8.781353403175085E+10,      /* J = 14 */
(PID.TID 0000.0001)                 8.948571540392021E+10,      /* J = 15 */
(PID.TID 0000.0001)                 9.049530583086168E+10,      /* J = 16 */
(PID.TID 0000.0001)                 9.083293515008307E+10,      /* J = 17 */
(PID.TID 0000.0001)                 9.049530583087070E+10,      /* J = 18 */
(PID.TID 0000.0001)                 8.948571540391121E+10,      /* J = 19 */
(PID.TID 0000.0001)                 8.781353403174185E+10,      /* J = 20 */
(PID.TID 0000.0001)                 8.549360686467184E+10,      /* J = 21 */
(PID.TID 0000.0001)                 8.254500894890933E+10,      /* J = 22 */
(PID.TID 0000.0001)                 7.898934631434262E+10,      /* J = 23 */
(PID.TID 0000.0001)                 7.484854821844795E+10,      /* J = 24 */
(PID.TID 0000.0001)                 7.014205907742783E+10,      /* J = 25 */
(PID.TID 0000.0001)                 6.488320895111514E+10,      /* J = 26 */
(PID.TID 0000.0001)                 5.907428494299063E+10,      /* J = 27 */
(PID.TID 0000.0001)                 5.269930713599078E+10,      /* J = 28 */
(PID.TID 0000.0001)                 4.571243814190767E+10,      /* J = 29 */
(PID.TID 0000.0001)                 3.801790263325260E+10,      /* J = 30 */
(PID.TID 0000.0001)                 2.943712825251114E+10,      /* J = 31 */
(PID.TID 0000.0001)                 1.974052138509018E+10       /* J = 32 */
(PID.TID 0000.0001)     ;
(PID.TID 0000.0001) 
(PID.TID 0000.0001)  MDSREADFIELD: opening global file: pickup.0000017280
(PID.TID 0000.0001)  MDSREADFIELD: opening global file: pickup.0000017280
(PID.TID 0000.0001)  MDSREADFIELD: opening global file: pickup.0000017280
(PID.TID 0000.0001)  MDSREADFIELD: opening global file: pickup.0000017280
(PID.TID 0000.0001)  MDSREADFIELD: opening global file: pickup.0000017280
(PID.TID 0000.0001)  MDSREADFIELD: opening global file: pickup.0000017280
(PID.TID 0000.0001)  MDSREADFIELD: opening global file: pickup.0000017280
(PID.TID 0000.0001)  MDSREADFIELD: opening global file: pickup.0000017280
(PID.TID 0000.0001)  MDSREADFIELD: opening global file: pickup.0000017280
(PID.TID 0000.0001)  MDSREADFIELD: opening global file: pickup.0000017280
(PID.TID 0000.0001)  MDSREADFIELD: opening global file: pickup.0000017280
(PID.TID 0000.0001)  MDSREADFIELD: opening global file: pickup.0000017280
(PID.TID 0000.0001)  MDSREADFIELD: opening global file: pickup.0000017280
(PID.TID 0000.0001) // =======================================================
(PID.TID 0000.0001) // Model current state
(PID.TID 0000.0001) // =======================================================
(PID.TID 0000.0001) 
(PID.TID 0000.0001) // =======================================================
(PID.TID 0000.0001) // Begin MONITOR dynamic field statistics
(PID.TID 0000.0001) // =======================================================
(PID.TID 0000.0001) %MON time_tsnumber                =                 17280
(PID.TID 0000.0001) %MON time_secondsf                =   7.7760000000000E+06
(PID.TID 0000.0001) %MON time_secondsi                =               7776000
(PID.TID 0000.0001) %MON dynstat_eta_max              =   2.7930764988462E+03
(PID.TID 0000.0001) %MON dynstat_eta_min              =  -5.0242186599134E+03
(PID.TID 0000.0001) %MON dynstat_eta_mean             =  -5.7509286400818E-13
(PID.TID 0000.0001) %MON dynstat_eta_sd               =   1.3605266458626E+03
(PID.TID 0000.0001) %MON dynstat_eta_del2             =   8.7592014952692E+01
(PID.TID 0000.0001) %MON dynstat_uvel_max             =   7.9503397966155E+01
(PID.TID 0000.0001) %MON dynstat_uvel_min             =  -5.4724830653677E+01
(PID.TID 0000.0001) %MON dynstat_uvel_mean            =   7.3416450578580E-01
(PID.TID 0000.0001) %MON dynstat_uvel_sd              =   1.2384306441583E+01
(PID.TID 0000.0001) %MON dynstat_uvel_del2            =   8.1671001112697E-01
(PID.TID 0000.0001) %MON dynstat_vvel_max             =   9.8983876774336E+01
(PID.TID 0000.0001) %MON dynstat_vvel_min             =  -5.3268369924894E+01
(PID.TID 0000.0001) %MON dynstat_vvel_mean            =   6.8207279762188E-01
(PID.TID 0000.0001) %MON dynstat_vvel_sd              =   1.3069178621390E+01
(PID.TID 0000.0001) %MON dynstat_vvel_del2            =   8.1323883457217E-01
(PID.TID 0000.0001) %MON dynstat_wvel_max             =   0.0000000000000E+00
(PID.TID 0000.0001) %MON dynstat_wvel_min             =   0.0000000000000E+00
(PID.TID 0000.0001) %MON dynstat_wvel_mean            =   0.0000000000000E+00
(PID.TID 0000.0001) %MON dynstat_wvel_sd              =   0.0000000000000E+00
(PID.TID 0000.0001) %MON dynstat_wvel_del2            =   0.0000000000000E+00
(PID.TID 0000.0001) %MON dynstat_theta_max            =   4.8271389629032E+02
(PID.TID 0000.0001) %MON dynstat_theta_min            =   2.3766921785784E+02
(PID.TID 0000.0001) %MON dynstat_theta_mean           =   3.3210805023641E+02
(PID.TID 0000.0001) %MON dynstat_theta_sd             =   5.1314322131132E+01
(PID.TID 0000.0001) %MON dynstat_theta_del2           =   6.1275012091755E-01
(PID.TID 0000.0001) %MON dynstat_salt_max             =   1.6045417441817E+01
(PID.TID 0000.0001) %MON dynstat_salt_min             =  -1.7191163445608E+00
(PID.TID 0000.0001) %MON dynstat_salt_mean            =   2.2582995475166E+00
(PID.TID 0000.0001) %MON dynstat_salt_sd              =   3.3755236356772E+00
(PID.TID 0000.0001) %MON dynstat_salt_del2            =   1.5696795923198E-01
(PID.TID 0000.0001) %MON advcfl_uvel_max              =   1.2137783209904E-01
(PID.TID 0000.0001) %MON advcfl_vvel_max              =   1.6011978090686E-01
(PID.TID 0000.0001) %MON advcfl_wvel_max              =   0.0000000000000E+00
(PID.TID 0000.0001) %MON advcfl_W_hf_max              =   0.0000000000000E+00
(PID.TID 0000.0001) %MON ke_max                       =   5.0281782461374E+03
(PID.TID 0000.0001) %MON ke_mean                      =   1.6451381762396E+02
(PID.TID 0000.0001) %MON ke_volint                    =   7.9890507437064E+21
(PID.TID 0000.0001) %MON ke_volmean                   =   1.6188781001540E+02
(PID.TID 0000.0001) // =======================================================
(PID.TID 0000.0001) // End MONITOR dynamic field statistics
(PID.TID 0000.0001) // =======================================================
(PID.TID 0000.0001)  MDSREADFIELD: opening global file: salb.apr.cs.bin
(PID.TID 0000.0001)  MDSREADFIELD: opening global file: stheta.apr.cs.bin
(PID.TID 0000.0001)  MDSREADFIELD: opening global file: smoist.apr.cs.bin
 cg2d: Sum(rhs),rhsMax =   1.40539668791462E-09  2.47361984937583E+04
(PID.TID 0000.0001)                    cg2d_init_res =    1.39077608133602E+04
(PID.TID 0000.0001)                       cg2d_iters =    16
(PID.TID 0000.0001)                         cg2d_res =    7.03714244008661E-11
(PID.TID 0000.0001) // =======================================================
(PID.TID 0000.0001) // Begin MONITOR dynamic field statistics
(PID.TID 0000.0001) // =======================================================
(PID.TID 0000.0001) %MON time_tsnumber                =                 17281
(PID.TID 0000.0001) %MON time_secondsf                =   7.7764500000000E+06
(PID.TID 0000.0001) %MON time_secondsi                =               7776450
(PID.TID 0000.0001) %MON dynstat_eta_max              =   2.7943063155631E+03
(PID.TID 0000.0001) %MON dynstat_eta_min              =  -5.0232960151654E+03
(PID.TID 0000.0001) %MON dynstat_eta_mean             =  -2.2390276487979E-13
(PID.TID 0000.0001) %MON dynstat_eta_sd               =   1.3603886476498E+03
(PID.TID 0000.0001) %MON dynstat_eta_del2             =   8.7622374427802E+01
(PID.TID 0000.0001) %MON dynstat_uvel_max             =   7.9339869875719E+01
(PID.TID 0000.0001) %MON dynstat_uvel_min             =  -5.4786583398513E+01
(PID.TID 0000.0001) %MON dynstat_uvel_mean            =   7.3423497520176E-01
(PID.TID 0000.0001) %MON dynstat_uvel_sd              =   1.2385219700838E+01
(PID.TID 0000.0001) %MON dynstat_uvel_del2            =   8.1684146695530E-01
(PID.TID 0000.0001) %MON dynstat_vvel_max             =   9.8851952090684E+01
(PID.TID 0000.0001) %MON dynstat_vvel_min             =  -5.3311366451433E+01
(PID.TID 0000.0001) %MON dynstat_vvel_mean            =   6.8162312482670E-01
(PID.TID 0000.0001) %MON dynstat_vvel_sd              =   1.3068195463399E+01
(PID.TID 0000.0001) %MON dynstat_vvel_del2            =   8.1325337049632E-01
(PID.TID 0000.0001) %MON dynstat_wvel_max             =   8.1994443050218E-01
(PID.TID 0000.0001) %MON dynstat_wvel_min             =  -1.0431520539551E+00
(PID.TID 0000.0001) %MON dynstat_wvel_mean            =  -4.9781049151120E-07
(PID.TID 0000.0001) %MON dynstat_wvel_sd              =   9.3652040689535E-02
(PID.TID 0000.0001) %MON dynstat_wvel_del2            =   2.2942221973484E-02
(PID.TID 0000.0001) %MON dynstat_theta_max            =   4.8273971242390E+02
(PID.TID 0000.0001) %MON dynstat_theta_min            =   2.3777385624096E+02
(PID.TID 0000.0001) %MON dynstat_theta_mean           =   3.3210868156707E+02
(PID.TID 0000.0001) %MON dynstat_theta_sd             =   5.1313576012576E+01
(PID.TID 0000.0001) %MON dynstat_theta_del2           =   6.1278389332061E-01
(PID.TID 0000.0001) %MON dynstat_salt_max             =   1.6036057018901E+01
(PID.TID 0000.0001) %MON dynstat_salt_min             =  -1.7233464305065E+00
(PID.TID 0000.0001) %MON dynstat_salt_mean            =   2.2584293577585E+00
(PID.TID 0000.0001) %MON dynstat_salt_sd              =   3.3756544429681E+00
(PID.TID 0000.0001) %MON dynstat_salt_del2            =   1.5693543724599E-01
(PID.TID 0000.0001) %MON advcfl_uvel_max              =   1.2112817377484E-01
(PID.TID 0000.0001) %MON advcfl_vvel_max              =   1.6021407943830E-01
(PID.TID 0000.0001) %MON advcfl_wvel_max              =   2.1084285355770E-02
(PID.TID 0000.0001) %MON advcfl_W_hf_max              =   1.9291117694124E-01
(PID.TID 0000.0001) %MON ke_max                       =   5.0160108174484E+03
(PID.TID 0000.0001) %MON ke_mean                      =   1.6453140937332E+02
(PID.TID 0000.0001) %MON ke_volint                    =   7.9889540668857E+21
(PID.TID 0000.0001) %MON ke_volmean                   =   1.6188585098431E+02
(PID.TID 0000.0001) // =======================================================
(PID.TID 0000.0001) // End MONITOR dynamic field statistics
(PID.TID 0000.0001) // =======================================================
 cg2d: Sum(rhs),rhsMax =  -1.31319666252239E-08  2.47378158852281E+04
(PID.TID 0000.0001)                    cg2d_init_res =    1.39244840606492E+04
(PID.TID 0000.0001)                       cg2d_iters =    16
(PID.TID 0000.0001)                         cg2d_res =    7.01099728999331E-11
(PID.TID 0000.0001) // =======================================================
(PID.TID 0000.0001) // Begin MONITOR dynamic field statistics
(PID.TID 0000.0001) // =======================================================
(PID.TID 0000.0001) %MON time_tsnumber                =                 17282
(PID.TID 0000.0001) %MON time_secondsf                =   7.7769000000000E+06
(PID.TID 0000.0001) %MON time_secondsi                =               7776900
(PID.TID 0000.0001) %MON dynstat_eta_max              =   2.7970925655930E+03
(PID.TID 0000.0001) %MON dynstat_eta_min              =  -5.0225779798457E+03
(PID.TID 0000.0001) %MON dynstat_eta_mean             =   3.1962281927492E-13
(PID.TID 0000.0001) %MON dynstat_eta_sd               =   1.3602478795804E+03
(PID.TID 0000.0001) %MON dynstat_eta_del2             =   8.7640894366324E+01
(PID.TID 0000.0001) %MON dynstat_uvel_max             =   7.9165626633874E+01
(PID.TID 0000.0001) %MON dynstat_uvel_min             =  -5.4849503694777E+01
(PID.TID 0000.0001) %MON dynstat_uvel_mean            =   7.3433290864497E-01
(PID.TID 0000.0001) %MON dynstat_uvel_sd              =   1.2386107288594E+01
(PID.TID 0000.0001) %MON dynstat_uvel_del2            =   8.1696706696499E-01
(PID.TID 0000.0001) %MON dynstat_vvel_max             =   9.8711898371338E+01
(PID.TID 0000.0001) %MON dynstat_vvel_min             =  -5.3349615642219E+01
(PID.TID 0000.0001) %MON dynstat_vvel_mean            =   6.8115385416145E-01
(PID.TID 0000.0001) %MON dynstat_vvel_sd              =   1.3067208681772E+01
(PID.TID 0000.0001) %MON dynstat_vvel_del2            =   8.1325354510599E-01
(PID.TID 0000.0001) %MON dynstat_wvel_max             =   8.2363038454657E-01
(PID.TID 0000.0001) %MON dynstat_wvel_min             =  -1.0411596289613E+00
(PID.TID 0000.0001) %MON dynstat_wvel_mean            =  -9.2674833359059E-07
(PID.TID 0000.0001) %MON dynstat_wvel_sd              =   9.3647660896776E-02
(PID.TID 0000.0001) %MON dynstat_wvel_del2            =   2.2943274431758E-02
(PID.TID 0000.0001) %MON dynstat_theta_max            =   4.8276244318755E+02
(PID.TID 0000.0001) %MON dynstat_theta_min            =   2.3787805087469E+02
(PID.TID 0000.0001) %MON dynstat_theta_mean           =   3.3210928101116E+02
(PID.TID 0000.0001) %MON dynstat_theta_sd             =   5.1312853365907E+01
(PID.TID 0000.0001) %MON dynstat_theta_del2           =   6.1277452742024E-01
(PID.TID 0000.0001) %MON dynstat_salt_max             =   1.6026997415576E+01
(PID.TID 0000.0001) %MON dynstat_salt_min             =  -1.7276070775125E+00
(PID.TID 0000.0001) %MON dynstat_salt_mean            =   2.2585672771188E+00
(PID.TID 0000.0001) %MON dynstat_salt_sd              =   3.3758033035702E+00
(PID.TID 0000.0001) %MON dynstat_salt_del2            =   1.5690064591618E-01
(PID.TID 0000.0001) %MON advcfl_uvel_max              =   1.2086215662974E-01
(PID.TID 0000.0001) %MON advcfl_vvel_max              =   1.6027526156260E-01
(PID.TID 0000.0001) %MON advcfl_wvel_max              =   2.1179067031197E-02
(PID.TID 0000.0001) %MON advcfl_W_hf_max              =   1.9233980883256E-01
(PID.TID 0000.0001) %MON ke_max                       =   5.0032873089671E+03
(PID.TID 0000.0001) %MON ke_mean                      =   1.6454880266058E+02
(PID.TID 0000.0001) %MON ke_volint                    =   7.9888395283908E+21
(PID.TID 0000.0001) %MON ke_volmean                   =   1.6188353000943E+02
(PID.TID 0000.0001) // =======================================================
(PID.TID 0000.0001) // End MONITOR dynamic field statistics
(PID.TID 0000.0001) // =======================================================
 cg2d: Sum(rhs),rhsMax =  -9.84334747045068E-09  2.47406973095707E+04
(PID.TID 0000.0001)                    cg2d_init_res =    1.39490741024212E+04
(PID.TID 0000.0001)                       cg2d_iters =    16
(PID.TID 0000.0001)                         cg2d_res =    7.01170643991922E-11
(PID.TID 0000.0001) // =======================================================
(PID.TID 0000.0001) // Begin MONITOR dynamic field statistics
(PID.TID 0000.0001) // =======================================================
(PID.TID 0000.0001) %MON time_tsnumber                =                 17283
(PID.TID 0000.0001) %MON time_secondsf                =   7.7773500000000E+06
(PID.TID 0000.0001) %MON time_secondsi                =               7777350
(PID.TID 0000.0001) %MON dynstat_eta_max              =   2.7998339442285E+03
(PID.TID 0000.0001) %MON dynstat_eta_min              =  -5.0219906271172E+03
(PID.TID 0000.0001) %MON dynstat_eta_mean             =   3.0038634130138E-13
(PID.TID 0000.0001) %MON dynstat_eta_sd               =   1.3601040581623E+03
(PID.TID 0000.0001) %MON dynstat_eta_del2             =   8.7650862588986E+01
(PID.TID 0000.0001) %MON dynstat_uvel_max             =   7.8982368610232E+01
(PID.TID 0000.0001) %MON dynstat_uvel_min             =  -5.4913369994836E+01
(PID.TID 0000.0001) %MON dynstat_uvel_mean            =   7.3445713445888E-01
(PID.TID 0000.0001) %MON dynstat_uvel_sd              =   1.2386964533132E+01
(PID.TID 0000.0001) %MON dynstat_uvel_del2            =   8.1708273304689E-01
(PID.TID 0000.0001) %MON dynstat_vvel_max             =   9.8564626721514E+01
(PID.TID 0000.0001) %MON dynstat_vvel_min             =  -5.3383003211779E+01
(PID.TID 0000.0001) %MON dynstat_vvel_mean            =   6.8066698548778E-01
(PID.TID 0000.0001) %MON dynstat_vvel_sd              =   1.3066221032997E+01
(PID.TID 0000.0001) %MON dynstat_vvel_del2            =   8.1327017637288E-01
(PID.TID 0000.0001) %MON dynstat_wvel_max             =   8.2753811395004E-01
(PID.TID 0000.0001) %MON dynstat_wvel_min             =  -1.0391690535690E+00
(PID.TID 0000.0001) %MON dynstat_wvel_mean            =  -1.6283093595705E-06
(PID.TID 0000.0001) %MON dynstat_wvel_sd              =   9.3631859785361E-02
(PID.TID 0000.0001) %MON dynstat_wvel_del2            =   2.2937716074844E-02
(PID.TID 0000.0001) %MON dynstat_theta_max            =   4.8278212265418E+02
(PID.TID 0000.0001) %MON dynstat_theta_min            =   2.3798130479607E+02
(PID.TID 0000.0001) %MON dynstat_theta_mean           =   3.3210989115375E+02
(PID.TID 0000.0001) %MON dynstat_theta_sd             =   5.1312131695866E+01
(PID.TID 0000.0001) %MON dynstat_theta_del2           =   6.1275630503121E-01
(PID.TID 0000.0001) %MON dynstat_salt_max             =   1.6018150289347E+01
(PID.TID 0000.0001) %MON dynstat_salt_min             =  -1.7318920585950E+00
(PID.TID 0000.0001) %MON dynstat_salt_mean            =   2.2586960771822E+00
(PID.TID 0000.0001) %MON dynstat_salt_sd              =   3.3759313860196E+00
(PID.TID 0000.0001) %MON dynstat_salt_del2            =   1.5686202580124E-01
(PID.TID 0000.0001) %MON advcfl_uvel_max              =   1.2058237661790E-01
(PID.TID 0000.0001) %MON advcfl_vvel_max              =   1.6030423769988E-01
(PID.TID 0000.0001) %MON advcfl_wvel_max              =   2.1279551501572E-02
(PID.TID 0000.0001) %MON advcfl_W_hf_max              =   1.9178493580297E-01
(PID.TID 0000.0001) %MON ke_max                       =   4.9900711119130E+03
(PID.TID 0000.0001) %MON ke_mean                      =   1.6456595975987E+02
(PID.TID 0000.0001) %MON ke_volint                    =   7.9887061006455E+21
(PID.TID 0000.0001) %MON ke_volmean                   =   1.6188082626825E+02
(PID.TID 0000.0001) // =======================================================
(PID.TID 0000.0001) // End MONITOR dynamic field statistics
(PID.TID 0000.0001) // =======================================================
 cg2d: Sum(rhs),rhsMax =  -2.24853238250944E-08  2.47441074182216E+04
(PID.TID 0000.0001)                    cg2d_init_res =    1.39685153825274E+04
(PID.TID 0000.0001)                       cg2d_iters =    16
(PID.TID 0000.0001)                         cg2d_res =    6.98033071254888E-11
(PID.TID 0000.0001) // =======================================================
(PID.TID 0000.0001) // Begin MONITOR dynamic field statistics
(PID.TID 0000.0001) // =======================================================
(PID.TID 0000.0001) %MON time_tsnumber                =                 17284
(PID.TID 0000.0001) %MON time_secondsf                =   7.7778000000000E+06
(PID.TID 0000.0001) %MON time_secondsi                =               7777800
(PID.TID 0000.0001) %MON dynstat_eta_max              =   2.8025415004848E+03
(PID.TID 0000.0001) %MON dynstat_eta_min              =  -5.0214186527976E+03
(PID.TID 0000.0001) %MON dynstat_eta_mean             =   1.9550695290808E-13
(PID.TID 0000.0001) %MON dynstat_eta_sd               =   1.3599573332881E+03
(PID.TID 0000.0001) %MON dynstat_eta_del2             =   8.7656462765876E+01
(PID.TID 0000.0001) %MON dynstat_uvel_max             =   7.8791452655407E+01
(PID.TID 0000.0001) %MON dynstat_uvel_min             =  -5.4974132946057E+01
(PID.TID 0000.0001) %MON dynstat_uvel_mean            =   7.3460767678414E-01
(PID.TID 0000.0001) %MON dynstat_uvel_sd              =   1.2387789394358E+01
(PID.TID 0000.0001) %MON dynstat_uvel_del2            =   8.1718799562898E-01
(PID.TID 0000.0001) %MON dynstat_vvel_max             =   9.8411030743145E+01
(PID.TID 0000.0001) %MON dynstat_vvel_min             =  -5.3411414958079E+01
(PID.TID 0000.0001) %MON dynstat_vvel_mean            =   6.8016219214057E-01
(PID.TID 0000.0001) %MON dynstat_vvel_sd              =   1.3065230838451E+01
(PID.TID 0000.0001) %MON dynstat_vvel_del2            =   8.1329751813503E-01
(PID.TID 0000.0001) %MON dynstat_wvel_max             =   8.3137663621049E-01
(PID.TID 0000.0001) %MON dynstat_wvel_min             =  -1.0371099919422E+00
(PID.TID 0000.0001) %MON dynstat_wvel_mean            =  -2.4567702171633E-06
(PID.TID 0000.0001) %MON dynstat_wvel_sd              =   9.3612892238088E-02
(PID.TID 0000.0001) %MON dynstat_wvel_del2            =   2.2942153549519E-02
(PID.TID 0000.0001) %MON dynstat_theta_max            =   4.8279880457043E+02
(PID.TID 0000.0001) %MON dynstat_theta_min            =   2.3808316689520E+02
(PID.TID 0000.0001) %MON dynstat_theta_mean           =   3.3211048229583E+02
(PID.TID 0000.0001) %MON dynstat_theta_sd             =   5.1311415021403E+01
(PID.TID 0000.0001) %MON dynstat_theta_del2           =   6.1270423333173E-01
(PID.TID 0000.0001) %MON dynstat_salt_max             =   1.6009481002610E+01
(PID.TID 0000.0001) %MON dynstat_salt_min             =  -1.7361949193825E+00
(PID.TID 0000.0001) %MON dynstat_salt_mean            =   2.2588264385198E+00
(PID.TID 0000.0001) %MON dynstat_salt_sd              =   3.3760623774369E+00
(PID.TID 0000.0001) %MON dynstat_salt_del2            =   1.5684119362974E-01
(PID.TID 0000.0001) %MON advcfl_uvel_max              =   1.2029090524306E-01
(PID.TID 0000.0001) %MON advcfl_vvel_max              =   1.6030203289865E-01
(PID.TID 0000.0001) %MON advcfl_wvel_max              =   2.1378256359698E-02
(PID.TID 0000.0001) %MON advcfl_W_hf_max              =   1.9132777537558E-01
(PID.TID 0000.0001) %MON ke_max                       =   4.9764235965134E+03
(PID.TID 0000.0001) %MON ke_mean                      =   1.6458282653761E+02
(PID.TID 0000.0001) %MON ke_volint                    =   7.9885514154593E+21
(PID.TID 0000.0001) %MON ke_volmean                   =   1.6187769177245E+02
(PID.TID 0000.0001) // =======================================================
(PID.TID 0000.0001) // End MONITOR dynamic field statistics
(PID.TID 0000.0001) // =======================================================
 cg2d: Sum(rhs),rhsMax =  -9.23478182812687E-09  2.47474357504564E+04
(PID.TID 0000.0001)                    cg2d_init_res =    1.39910733329464E+04
(PID.TID 0000.0001)                       cg2d_iters =    16
(PID.TID 0000.0001)                         cg2d_res =    6.87858341076716E-11
(PID.TID 0000.0001) // =======================================================
(PID.TID 0000.0001) // Begin MONITOR dynamic field statistics
(PID.TID 0000.0001) // =======================================================
(PID.TID 0000.0001) %MON time_tsnumber                =                 17285
(PID.TID 0000.0001) %MON time_secondsf                =   7.7782500000000E+06
(PID.TID 0000.0001) %MON time_secondsi                =               7778250
(PID.TID 0000.0001) %MON dynstat_eta_max              =   2.8052311307459E+03
(PID.TID 0000.0001) %MON dynstat_eta_min              =  -5.0207624895220E+03
(PID.TID 0000.0001) %MON dynstat_eta_mean             =  -3.5154516264688E-13
(PID.TID 0000.0001) %MON dynstat_eta_sd               =   1.3598082288638E+03
(PID.TID 0000.0001) %MON dynstat_eta_del2             =   8.7666934822852E+01
(PID.TID 0000.0001) %MON dynstat_uvel_max             =   7.8593793990691E+01
(PID.TID 0000.0001) %MON dynstat_uvel_min             =  -5.5033796482597E+01
(PID.TID 0000.0001) %MON dynstat_uvel_mean            =   7.3478430587560E-01
(PID.TID 0000.0001) %MON dynstat_uvel_sd              =   1.2388583582177E+01
(PID.TID 0000.0001) %MON dynstat_uvel_del2            =   8.1728846376603E-01
(PID.TID 0000.0001) %MON dynstat_vvel_max             =   9.8251992033280E+01
(PID.TID 0000.0001) %MON dynstat_vvel_min             =  -5.3434809828452E+01
(PID.TID 0000.0001) %MON dynstat_vvel_mean            =   6.7964019987203E-01
(PID.TID 0000.0001) %MON dynstat_vvel_sd              =   1.3064236845920E+01
(PID.TID 0000.0001) %MON dynstat_vvel_del2            =   8.1332299895403E-01
(PID.TID 0000.0001) %MON dynstat_wvel_max             =   8.3499005226262E-01
(PID.TID 0000.0001) %MON dynstat_wvel_min             =  -1.0349781692711E+00
(PID.TID 0000.0001) %MON dynstat_wvel_mean            =  -3.2264060365250E-06
(PID.TID 0000.0001) %MON dynstat_wvel_sd              =   9.3582512106927E-02
(PID.TID 0000.0001) %MON dynstat_wvel_del2            =   2.2939482418647E-02
(PID.TID 0000.0001) %MON dynstat_theta_max            =   4.8281251823467E+02
(PID.TID 0000.0001) %MON dynstat_theta_min            =   2.3818343381902E+02
(PID.TID 0000.0001) %MON dynstat_theta_mean           =   3.3211109031613E+02
(PID.TID 0000.0001) %MON dynstat_theta_sd             =   5.1310711108520E+01
(PID.TID 0000.0001) %MON dynstat_theta_del2           =   6.1268735017469E-01
(PID.TID 0000.0001) %MON dynstat_salt_max             =   1.6000958617296E+01
(PID.TID 0000.0001) %MON dynstat_salt_min             =  -1.7405104478829E+00
(PID.TID 0000.0001) %MON dynstat_salt_mean            =   2.2589472470562E+00
(PID.TID 0000.0001) %MON dynstat_salt_sd              =   3.3761905139403E+00
(PID.TID 0000.0001) %MON dynstat_salt_del2            =   1.5681890029906E-01
(PID.TID 0000.0001) %MON advcfl_uvel_max              =   1.1998913977350E-01
(PID.TID 0000.0001) %MON advcfl_vvel_max              =   1.6026976298218E-01
(PID.TID 0000.0001) %MON advcfl_wvel_max              =   2.1471172772467E-02
(PID.TID 0000.0001) %MON advcfl_W_hf_max              =   1.9097135456128E-01
(PID.TID 0000.0001) %MON ke_max                       =   4.9624047424775E+03
(PID.TID 0000.0001) %MON ke_mean                      =   1.6459939765467E+02
(PID.TID 0000.0001) %MON ke_volint                    =   7.9883757720459E+21
(PID.TID 0000.0001) %MON ke_volmean                   =   1.6187413258520E+02
(PID.TID 0000.0001) // =======================================================
(PID.TID 0000.0001) // End MONITOR dynamic field statistics
(PID.TID 0000.0001) // =======================================================
 cg2d: Sum(rhs),rhsMax =  -4.06555500376271E-09  2.47503747215049E+04
(PID.TID 0000.0001)                    cg2d_init_res =    1.40046974216779E+04
(PID.TID 0000.0001)                       cg2d_iters =    16
(PID.TID 0000.0001)                         cg2d_res =    6.66835749348729E-11
(PID.TID 0000.0001) // =======================================================
(PID.TID 0000.0001) // Begin MONITOR dynamic field statistics
(PID.TID 0000.0001) // =======================================================
(PID.TID 0000.0001) %MON time_tsnumber                =                 17286
(PID.TID 0000.0001) %MON time_secondsf                =   7.7787000000000E+06
(PID.TID 0000.0001) %MON time_secondsi                =               7778700
(PID.TID 0000.0001) %MON dynstat_eta_max              =   2.8079219196406E+03
(PID.TID 0000.0001) %MON dynstat_eta_min              =  -5.0199625458247E+03
(PID.TID 0000.0001) %MON dynstat_eta_mean             =   1.1272464662286E-12
(PID.TID 0000.0001) %MON dynstat_eta_sd               =   1.3596581494902E+03
(PID.TID 0000.0001) %MON dynstat_eta_del2             =   8.7681279131690E+01
(PID.TID 0000.0001) %MON dynstat_uvel_max             =   7.8390208241563E+01
(PID.TID 0000.0001) %MON dynstat_uvel_min             =  -5.5090247178470E+01
(PID.TID 0000.0001) %MON dynstat_uvel_mean            =   7.3498779198065E-01
(PID.TID 0000.0001) %MON dynstat_uvel_sd              =   1.2389349441692E+01
(PID.TID 0000.0001) %MON dynstat_uvel_del2            =   8.1738322424698E-01
(PID.TID 0000.0001) %MON dynstat_vvel_max             =   9.8088380076603E+01
(PID.TID 0000.0001) %MON dynstat_vvel_min             =  -5.3453104824398E+01
(PID.TID 0000.0001) %MON dynstat_vvel_mean            =   6.7910176821846E-01
(PID.TID 0000.0001) %MON dynstat_vvel_sd              =   1.3063237120522E+01
(PID.TID 0000.0001) %MON dynstat_vvel_del2            =   8.1334803197516E-01
(PID.TID 0000.0001) %MON dynstat_wvel_max             =   8.3835272482472E-01
(PID.TID 0000.0001) %MON dynstat_wvel_min             =  -1.0327930546437E+00
(PID.TID 0000.0001) %MON dynstat_wvel_mean            =  -3.9302319724069E-06
(PID.TID 0000.0001) %MON dynstat_wvel_sd              =   9.3554003035336E-02
(PID.TID 0000.0001) %MON dynstat_wvel_del2            =   2.2940348226368E-02
(PID.TID 0000.0001) %MON dynstat_theta_max            =   4.8282326210851E+02
(PID.TID 0000.0001) %MON dynstat_theta_min            =   2.3828213541696E+02
(PID.TID 0000.0001) %MON dynstat_theta_mean           =   3.3211174037961E+02
(PID.TID 0000.0001) %MON dynstat_theta_sd             =   5.1309995312940E+01
(PID.TID 0000.0001) %MON dynstat_theta_del2           =   6.1265966567871E-01
(PID.TID 0000.0001) %MON dynstat_salt_max             =   1.5992561604186E+01
(PID.TID 0000.0001) %MON dynstat_salt_min             =  -1.7448329825189E+00
(PID.TID 0000.0001) %MON dynstat_salt_mean            =   2.2590481185561E+00
(PID.TID 0000.0001) %MON dynstat_salt_sd              =   3.3762750415356E+00
(PID.TID 0000.0001) %MON dynstat_salt_del2            =   1.5678546148749E-01
(PID.TID 0000.0001) %MON advcfl_uvel_max              =   1.1967832542458E-01
(PID.TID 0000.0001) %MON advcfl_vvel_max              =   1.6020865217214E-01
(PID.TID 0000.0001) %MON advcfl_wvel_max              =   2.1557641495493E-02
(PID.TID 0000.0001) %MON advcfl_W_hf_max              =   1.9068474290588E-01
(PID.TID 0000.0001) %MON ke_max                       =   4.9480738221897E+03
(PID.TID 0000.0001) %MON ke_mean                      =   1.6461568246888E+02
(PID.TID 0000.0001) %MON ke_volint                    =   7.9881794095494E+21
(PID.TID 0000.0001) %MON ke_volmean                   =   1.6187015355245E+02
(PID.TID 0000.0001) // =======================================================
(PID.TID 0000.0001) // End MONITOR dynamic field statistics
(PID.TID 0000.0001) // =======================================================
 cg2d: Sum(rhs),rhsMax =   1.28793544718064E-08  2.47529116061565E+04
(PID.TID 0000.0001)                    cg2d_init_res =    1.40166880486256E+04
(PID.TID 0000.0001)                       cg2d_iters =    16
(PID.TID 0000.0001)                         cg2d_res =    6.44721592453754E-11
(PID.TID 0000.0001) // =======================================================
(PID.TID 0000.0001) // Begin MONITOR dynamic field statistics
(PID.TID 0000.0001) // =======================================================
(PID.TID 0000.0001) %MON time_tsnumber                =                 17287
(PID.TID 0000.0001) %MON time_secondsf                =   7.7791500000000E+06
(PID.TID 0000.0001) %MON time_secondsi                =               7779150
(PID.TID 0000.0001) %MON dynstat_eta_max              =   2.8106320030939E+03
(PID.TID 0000.0001) %MON dynstat_eta_min              =  -5.0189980000269E+03
(PID.TID 0000.0001) %MON dynstat_eta_mean             =  -7.3417284512641E-14
(PID.TID 0000.0001) %MON dynstat_eta_sd               =   1.3595084385840E+03
(PID.TID 0000.0001) %MON dynstat_eta_del2             =   8.7701851148040E+01
(PID.TID 0000.0001) %MON dynstat_uvel_max             =   7.8181158940667E+01
(PID.TID 0000.0001) %MON dynstat_uvel_min             =  -5.5146136049270E+01
(PID.TID 0000.0001) %MON dynstat_uvel_mean            =   7.3521740556070E-01
(PID.TID 0000.0001) %MON dynstat_uvel_sd              =   1.2390087001869E+01
(PID.TID 0000.0001) %MON dynstat_uvel_del2            =   8.1748248061023E-01
(PID.TID 0000.0001) %MON dynstat_vvel_max             =   9.7921035178889E+01
(PID.TID 0000.0001) %MON dynstat_vvel_min             =  -5.3466209236458E+01
(PID.TID 0000.0001) %MON dynstat_vvel_mean            =   6.7854844977031E-01
(PID.TID 0000.0001) %MON dynstat_vvel_sd              =   1.3062230935340E+01
(PID.TID 0000.0001) %MON dynstat_vvel_del2            =   8.1336522298960E-01
(PID.TID 0000.0001) %MON dynstat_wvel_max             =   8.4151541993057E-01
(PID.TID 0000.0001) %MON dynstat_wvel_min             =  -1.0305748439310E+00
(PID.TID 0000.0001) %MON dynstat_wvel_mean            =  -4.5834750756349E-06
(PID.TID 0000.0001) %MON dynstat_wvel_sd              =   9.3534741152613E-02
(PID.TID 0000.0001) %MON dynstat_wvel_del2            =   2.2941680216492E-02
(PID.TID 0000.0001) %MON dynstat_theta_max            =   4.8283101361475E+02
(PID.TID 0000.0001) %MON dynstat_theta_min            =   2.3837939315114E+02
(PID.TID 0000.0001) %MON dynstat_theta_mean           =   3.3211238252164E+02
(PID.TID 0000.0001) %MON dynstat_theta_sd             =   5.1309282566994E+01
(PID.TID 0000.0001) %MON dynstat_theta_del2           =   6.1265320785652E-01
(PID.TID 0000.0001) %MON dynstat_salt_max             =   1.5984275638545E+01
(PID.TID 0000.0001) %MON dynstat_salt_min             =  -1.7491623987618E+00
(PID.TID 0000.0001) %MON dynstat_salt_mean            =   2.2591476601097E+00
(PID.TID 0000.0001) %MON dynstat_salt_sd              =   3.3763538232311E+00
(PID.TID 0000.0001) %MON dynstat_salt_del2            =   1.5675265218654E-01
(PID.TID 0000.0001) %MON advcfl_uvel_max              =   1.1935916987157E-01
(PID.TID 0000.0001) %MON advcfl_vvel_max              =   1.6011981790736E-01
(PID.TID 0000.0001) %MON advcfl_wvel_max              =   2.1638967941072E-02
(PID.TID 0000.0001) %MON advcfl_W_hf_max              =   1.9044079893828E-01
(PID.TID 0000.0001) %MON ke_max                       =   4.9334876853334E+03
(PID.TID 0000.0001) %MON ke_mean                      =   1.6463166982265E+02
(PID.TID 0000.0001) %MON ke_volint                    =   7.9879619275520E+21
(PID.TID 0000.0001) %MON ke_volmean                   =   1.6186574656025E+02
(PID.TID 0000.0001) // =======================================================
(PID.TID 0000.0001) // End MONITOR dynamic field statistics
(PID.TID 0000.0001) // =======================================================
 cg2d: Sum(rhs),rhsMax =  -1.19644028018229E-09  2.47552171726009E+04
(PID.TID 0000.0001)                    cg2d_init_res =    1.40341261624372E+04
(PID.TID 0000.0001)                       cg2d_iters =    16
(PID.TID 0000.0001)                         cg2d_res =    6.48941603808006E-11
(PID.TID 0000.0001) // =======================================================
(PID.TID 0000.0001) // Begin MONITOR dynamic field statistics
(PID.TID 0000.0001) // =======================================================
(PID.TID 0000.0001) %MON time_tsnumber                =                 17288
(PID.TID 0000.0001) %MON time_secondsf                =   7.7796000000000E+06
(PID.TID 0000.0001) %MON time_secondsi                =               7779600
(PID.TID 0000.0001) %MON dynstat_eta_max              =   2.8133752997897E+03
(PID.TID 0000.0001) %MON dynstat_eta_min              =  -5.0178713434477E+03
(PID.TID 0000.0001) %MON dynstat_eta_mean             =  -1.1390802079871E-13
(PID.TID 0000.0001) %MON dynstat_eta_sd               =   1.3593591260226E+03
(PID.TID 0000.0001) %MON dynstat_eta_del2             =   8.7715595690374E+01
(PID.TID 0000.0001) %MON dynstat_uvel_max             =   7.7966875781798E+01
(PID.TID 0000.0001) %MON dynstat_uvel_min             =  -5.5201160625790E+01
(PID.TID 0000.0001) %MON dynstat_uvel_mean            =   7.3547411471272E-01
(PID.TID 0000.0001) %MON dynstat_uvel_sd              =   1.2390796777776E+01
(PID.TID 0000.0001) %MON dynstat_uvel_del2            =   8.1759512879974E-01
(PID.TID 0000.0001) %MON dynstat_vvel_max             =   9.7750784997429E+01
(PID.TID 0000.0001) %MON dynstat_vvel_min             =  -5.3474079842277E+01
(PID.TID 0000.0001) %MON dynstat_vvel_mean            =   6.7797926994463E-01
(PID.TID 0000.0001) %MON dynstat_vvel_sd              =   1.3061217128410E+01
(PID.TID 0000.0001) %MON dynstat_vvel_del2            =   8.1336400573937E-01
(PID.TID 0000.0001) %MON dynstat_wvel_max             =   8.4454803177152E-01
(PID.TID 0000.0001) %MON dynstat_wvel_min             =  -1.0283377369406E+00
(PID.TID 0000.0001) %MON dynstat_wvel_mean            =  -5.1966927515156E-06
(PID.TID 0000.0001) %MON dynstat_wvel_sd              =   9.3520881155511E-02
(PID.TID 0000.0001) %MON dynstat_wvel_del2            =   2.2940947824593E-02
(PID.TID 0000.0001) %MON dynstat_theta_max            =   4.8283574534943E+02
(PID.TID 0000.0001) %MON dynstat_theta_min            =   2.3847527669405E+02
(PID.TID 0000.0001) %MON dynstat_theta_mean           =   3.3211302591904E+02
(PID.TID 0000.0001) %MON dynstat_theta_sd             =   5.1308581818091E+01
(PID.TID 0000.0001) %MON dynstat_theta_del2           =   6.1262879603454E-01
(PID.TID 0000.0001) %MON dynstat_salt_max             =   1.5976090535217E+01
(PID.TID 0000.0001) %MON dynstat_salt_min             =  -1.7535053761615E+00
(PID.TID 0000.0001) %MON dynstat_salt_mean            =   2.2592439234172E+00
(PID.TID 0000.0001) %MON dynstat_salt_sd              =   3.3764549330676E+00
(PID.TID 0000.0001) %MON dynstat_salt_del2            =   1.5673562191419E-01
(PID.TID 0000.0001) %MON advcfl_uvel_max              =   1.1903202378795E-01
(PID.TID 0000.0001) %MON advcfl_vvel_max              =   1.6000440439036E-01
(PID.TID 0000.0001) %MON advcfl_wvel_max              =   2.1716949388410E-02
(PID.TID 0000.0001) %MON advcfl_W_hf_max              =   1.9022502897179E-01
(PID.TID 0000.0001) %MON ke_max                       =   4.9187009359230E+03
(PID.TID 0000.0001) %MON ke_mean                      =   1.6464734848667E+02
(PID.TID 0000.0001) %MON ke_volint                    =   7.9877229287540E+21
(PID.TID 0000.0001) %MON ke_volmean                   =   1.6186090355784E+02
(PID.TID 0000.0001) // =======================================================
(PID.TID 0000.0001) // End MONITOR dynamic field statistics
(PID.TID 0000.0001) // =======================================================
 cg2d: Sum(rhs),rhsMax =   3.06602032651426E-09  2.47575136789628E+04
(PID.TID 0000.0001)                    cg2d_init_res =    1.40467671506827E+04
(PID.TID 0000.0001)                       cg2d_iters =    16
(PID.TID 0000.0001)                         cg2d_res =    6.77293585494238E-11
(PID.TID 0000.0001) // =======================================================
(PID.TID 0000.0001) // Begin MONITOR dynamic field statistics
(PID.TID 0000.0001) // =======================================================
(PID.TID 0000.0001) %MON time_tsnumber                =                 17289
(PID.TID 0000.0001) %MON time_secondsf                =   7.7800500000000E+06
(PID.TID 0000.0001) %MON time_secondsi                =               7780050
(PID.TID 0000.0001) %MON dynstat_eta_max              =   2.8161606824884E+03
(PID.TID 0000.0001) %MON dynstat_eta_min              =  -5.0165920837689E+03
(PID.TID 0000.0001) %MON dynstat_eta_mean             =   1.4803076147493E-14
(PID.TID 0000.0001) %MON dynstat_eta_sd               =   1.3592106068446E+03
(PID.TID 0000.0001) %MON dynstat_eta_del2             =   8.7729588709085E+01
(PID.TID 0000.0001) %MON dynstat_uvel_max             =   7.7747485849694E+01
(PID.TID 0000.0001) %MON dynstat_uvel_min             =  -5.5253415999160E+01
(PID.TID 0000.0001) %MON dynstat_uvel_mean            =   7.3575767014515E-01
(PID.TID 0000.0001) %MON dynstat_uvel_sd              =   1.2391479286391E+01
(PID.TID 0000.0001) %MON dynstat_uvel_del2            =   8.1769624027305E-01
(PID.TID 0000.0001) %MON dynstat_vvel_max             =   9.7578462602500E+01
(PID.TID 0000.0001) %MON dynstat_vvel_min             =  -5.3476696830513E+01
(PID.TID 0000.0001) %MON dynstat_vvel_mean            =   6.7739493978292E-01
(PID.TID 0000.0001) %MON dynstat_vvel_sd              =   1.3060195071612E+01
(PID.TID 0000.0001) %MON dynstat_vvel_del2            =   8.1334773918335E-01
(PID.TID 0000.0001) %MON dynstat_wvel_max             =   8.4750219286788E-01
(PID.TID 0000.0001) %MON dynstat_wvel_min             =  -1.0260916020191E+00
(PID.TID 0000.0001) %MON dynstat_wvel_mean            =  -5.7690471224842E-06
(PID.TID 0000.0001) %MON dynstat_wvel_sd              =   9.3507453397775E-02
(PID.TID 0000.0001) %MON dynstat_wvel_del2            =   2.2943954913379E-02
(PID.TID 0000.0001) %MON dynstat_theta_max            =   4.8283744016250E+02
(PID.TID 0000.0001) %MON dynstat_theta_min            =   2.3856973142108E+02
(PID.TID 0000.0001) %MON dynstat_theta_mean           =   3.3211365839225E+02
(PID.TID 0000.0001) %MON dynstat_theta_sd             =   5.1307888738785E+01
(PID.TID 0000.0001) %MON dynstat_theta_del2           =   6.1261864784348E-01
(PID.TID 0000.0001) %MON dynstat_salt_max             =   1.5967998170749E+01
(PID.TID 0000.0001) %MON dynstat_salt_min             =  -1.7578663244418E+00
(PID.TID 0000.0001) %MON dynstat_salt_mean            =   2.2593398261512E+00
(PID.TID 0000.0001) %MON dynstat_salt_sd              =   3.3765350010490E+00
(PID.TID 0000.0001) %MON dynstat_salt_del2            =   1.5670333225412E-01
(PID.TID 0000.0001) %MON advcfl_uvel_max              =   1.1869708119399E-01
(PID.TID 0000.0001) %MON advcfl_vvel_max              =   1.5986380686633E-01
(PID.TID 0000.0001) %MON advcfl_wvel_max              =   2.1792913530888E-02
(PID.TID 0000.0001) %MON advcfl_W_hf_max              =   1.9003485942906E-01
(PID.TID 0000.0001) %MON ke_max                       =   4.9037667403297E+03
(PID.TID 0000.0001) %MON ke_mean                      =   1.6466270706063E+02
(PID.TID 0000.0001) %MON ke_volint                    =   7.9874624173715E+21
(PID.TID 0000.0001) %MON ke_volmean                   =   1.6185562463065E+02
(PID.TID 0000.0001) // =======================================================
(PID.TID 0000.0001) // End MONITOR dynamic field statistics
(PID.TID 0000.0001) // =======================================================
 cg2d: Sum(rhs),rhsMax =  -8.45034264784772E-09  2.47599764831429E+04
(PID.TID 0000.0001)                    cg2d_init_res =    1.40566900833067E+04
(PID.TID 0000.0001)                       cg2d_iters =    16
(PID.TID 0000.0001)                         cg2d_res =    7.00724223315476E-11
(PID.TID 0000.0001) // =======================================================
(PID.TID 0000.0001) // Begin MONITOR dynamic field statistics
(PID.TID 0000.0001) // =======================================================
(PID.TID 0000.0001) %MON time_tsnumber                =                 17290
(PID.TID 0000.0001) %MON time_secondsf                =   7.7805000000000E+06
(PID.TID 0000.0001) %MON time_secondsi                =               7780500
(PID.TID 0000.0001) %MON dynstat_eta_max              =   2.8189923639855E+03
(PID.TID 0000.0001) %MON dynstat_eta_min              =  -5.0151665909835E+03
(PID.TID 0000.0001) %MON dynstat_eta_mean             =  -3.9930074164291E-13
(PID.TID 0000.0001) %MON dynstat_eta_sd               =   1.3590631033389E+03
(PID.TID 0000.0001) %MON dynstat_eta_del2             =   8.7741461811419E+01
(PID.TID 0000.0001) %MON dynstat_uvel_max             =   7.7523087407905E+01
(PID.TID 0000.0001) %MON dynstat_uvel_min             =  -5.5305423923213E+01
(PID.TID 0000.0001) %MON dynstat_uvel_mean            =   7.3606924759006E-01
(PID.TID 0000.0001) %MON dynstat_uvel_sd              =   1.2392139907938E+01
(PID.TID 0000.0001) %MON dynstat_uvel_del2            =   8.1781250619338E-01
(PID.TID 0000.0001) %MON dynstat_vvel_max             =   9.7404879457942E+01
(PID.TID 0000.0001) %MON dynstat_vvel_min             =  -5.3474019828669E+01
(PID.TID 0000.0001) %MON dynstat_vvel_mean            =   6.7679385638031E-01
(PID.TID 0000.0001) %MON dynstat_vvel_sd              =   1.3059162559976E+01
(PID.TID 0000.0001) %MON dynstat_vvel_del2            =   8.1332988161267E-01
(PID.TID 0000.0001) %MON dynstat_wvel_max             =   8.5040063522506E-01
(PID.TID 0000.0001) %MON dynstat_wvel_min             =  -1.0238447887461E+00
(PID.TID 0000.0001) %MON dynstat_wvel_mean            =  -6.2219156044584E-06
(PID.TID 0000.0001) %MON dynstat_wvel_sd              =   9.3491586006106E-02
(PID.TID 0000.0001) %MON dynstat_wvel_del2            =   2.2953798517504E-02
(PID.TID 0000.0001) %MON dynstat_theta_max            =   4.8283610078301E+02
(PID.TID 0000.0001) %MON dynstat_theta_min            =   2.3866258902578E+02
(PID.TID 0000.0001) %MON dynstat_theta_mean           =   3.3211432929000E+02
(PID.TID 0000.0001) %MON dynstat_theta_sd             =   5.1307191145289E+01
(PID.TID 0000.0001) %MON dynstat_theta_del2           =   6.1258118502714E-01
(PID.TID 0000.0001) %MON dynstat_salt_max             =   1.5959989696968E+01
(PID.TID 0000.0001) %MON dynstat_salt_min             =  -1.7622523119591E+00
(PID.TID 0000.0001) %MON dynstat_salt_mean            =   2.2594186482633E+00
(PID.TID 0000.0001) %MON dynstat_salt_sd              =   3.3766122289251E+00
(PID.TID 0000.0001) %MON dynstat_salt_del2            =   1.5667638355264E-01
(PID.TID 0000.0001) %MON advcfl_uvel_max              =   1.1835449210865E-01
(PID.TID 0000.0001) %MON advcfl_vvel_max              =   1.5969958442909E-01
(PID.TID 0000.0001) %MON advcfl_wvel_max              =   2.1867444905787E-02
(PID.TID 0000.0001) %MON advcfl_W_hf_max              =   1.8987361928079E-01
(PID.TID 0000.0001) %MON ke_max                       =   4.8887328684650E+03
(PID.TID 0000.0001) %MON ke_mean                      =   1.6467775798683E+02
(PID.TID 0000.0001) %MON ke_volint                    =   7.9871822874786E+21
(PID.TID 0000.0001) %MON ke_volmean                   =   1.6184994815965E+02
(PID.TID 0000.0001) // =======================================================
(PID.TID 0000.0001) // End MONITOR dynamic field statistics
(PID.TID 0000.0001) // =======================================================
(PID.TID 0000.0001)  Seconds in section "ALL                [THE_MODEL_MAIN]":
(PID.TID 0000.0001)          User time:   11.97999977134168
(PID.TID 0000.0001)        System time:  0.5099999904632568
(PID.TID 0000.0001)    Wall clock time:   12.69831001758575
(PID.TID 0000.0001)         No. starts:           1
(PID.TID 0000.0001)          No. stops:           1
(PID.TID 0000.0001)  Seconds in section "INITIALISE_FIXED   [THE_MODEL_MAIN]":
(PID.TID 0000.0001)          User time:  0.3000000026077032
(PID.TID 0000.0001)        System time:  0.1700000017881393
(PID.TID 0000.0001)    Wall clock time:  0.5590289831161499
(PID.TID 0000.0001)         No. starts:           1
(PID.TID 0000.0001)          No. stops:           1
(PID.TID 0000.0001)  Seconds in section "THE_MAIN_LOOP      [THE_MODEL_MAIN]":
(PID.TID 0000.0001)          User time:   11.62999957799911
(PID.TID 0000.0001)        System time:  0.2899999767541885
(PID.TID 0000.0001)    Wall clock time:   12.02692902088165
(PID.TID 0000.0001)         No. starts:           1
(PID.TID 0000.0001)          No. stops:           1
(PID.TID 0000.0001)  Seconds in section "INITIALISE_VARIA    [THE_MAIN_LOOP]":
(PID.TID 0000.0001)          User time:  0.1499999761581421
(PID.TID 0000.0001)        System time:  0.1199999898672104
(PID.TID 0000.0001)    Wall clock time:  0.2675160169601440
(PID.TID 0000.0001)         No. starts:           1
(PID.TID 0000.0001)          No. stops:           1
(PID.TID 0000.0001)  Seconds in section "WRITE_STATE         [THE_MAIN_LOOP]":
(PID.TID 0000.0001)          User time:  2.0000010728836060E-002
(PID.TID 0000.0001)        System time:  5.0000011920928955E-002
(PID.TID 0000.0001)    Wall clock time:  7.2476983070373535E-002
(PID.TID 0000.0001)         No. starts:           1
(PID.TID 0000.0001)          No. stops:           1
(PID.TID 0000.0001)  Seconds in section "MONITOR             [THE_MAIN_LOOP]":
(PID.TID 0000.0001)          User time:  9.9999994039535522E-002
(PID.TID 0000.0001)        System time:  0.0000000000000000E+000
(PID.TID 0000.0001)    Wall clock time:  0.1006230115890503
(PID.TID 0000.0001)         No. starts:           1
(PID.TID 0000.0001)          No. stops:           1
(PID.TID 0000.0001)  Seconds in section "MAIN LOOP           [THE_MAIN_LOOP]":
(PID.TID 0000.0001)          User time:   11.34999936819077
(PID.TID 0000.0001)        System time:  0.1199999749660492
(PID.TID 0000.0001)    Wall clock time:   11.58555698394775
(PID.TID 0000.0001)         No. starts:           1
(PID.TID 0000.0001)          No. stops:           1
(PID.TID 0000.0001)  Seconds in section "FORWARD_STEP        [THE_MAIN_LOOP]":
(PID.TID 0000.0001)          User time:   11.34999936819077
(PID.TID 0000.0001)        System time:  0.1199999749660492
(PID.TID 0000.0001)    Wall clock time:   11.58391630649567
(PID.TID 0000.0001)         No. starts:          10
(PID.TID 0000.0001)          No. stops:          10
(PID.TID 0000.0001)  Seconds in section "EXTERNAL_FIELDS_LOAD[THE_MAIN_LOOP]":
(PID.TID 0000.0001)          User time:  2.0000219345092773E-002
(PID.TID 0000.0001)        System time:  9.9999904632568359E-003
(PID.TID 0000.0001)    Wall clock time:  1.9589304924011230E-002
(PID.TID 0000.0001)         No. starts:          10
(PID.TID 0000.0001)          No. stops:          10
(PID.TID 0000.0001)  Seconds in section "THERMODYNAMICS      [THE_MAIN_LOOP]":
(PID.TID 0000.0001)          User time:   4.649999916553497
(PID.TID 0000.0001)        System time:  2.0000010728836060E-002
(PID.TID 0000.0001)    Wall clock time:   4.711223006248474
(PID.TID 0000.0001)         No. starts:          10
(PID.TID 0000.0001)          No. stops:          10
(PID.TID 0000.0001)  Seconds in section "AIM_DO_ATMOS_PHYS      [DYNAMICS]":
(PID.TID 0000.0001)          User time:   3.110002696514130
(PID.TID 0000.0001)        System time:  2.0000010728836060E-002
(PID.TID 0000.0001)    Wall clock time:   3.146287441253662
(PID.TID 0000.0001)         No. starts:          60
(PID.TID 0000.0001)          No. stops:          60
(PID.TID 0000.0001)  Seconds in section "SHAP_FILT           [THE_MAIN_LOOP]":
(PID.TID 0000.0001)          User time:  0.0000000000000000E+000
(PID.TID 0000.0001)        System time:  0.0000000000000000E+000
(PID.TID 0000.0001)    Wall clock time:  1.4901161193847656E-003
(PID.TID 0000.0001)         No. starts:          10
(PID.TID 0000.0001)          No. stops:          10
(PID.TID 0000.0001)  Seconds in section "DYNAMICS            [THE_MAIN_LOOP]":
(PID.TID 0000.0001)          User time:   2.260001420974731
(PID.TID 0000.0001)        System time:  9.9999904632568359E-003
(PID.TID 0000.0001)    Wall clock time:   2.304824948310852
(PID.TID 0000.0001)         No. starts:          10
(PID.TID 0000.0001)          No. stops:          10
(PID.TID 0000.0001)  Seconds in section "SOLVE_FOR_PRESSURE  [THE_MAIN_LOOP]":
(PID.TID 0000.0001)          User time:  0.7599989175796509
(PID.TID 0000.0001)        System time:  9.9999904632568359E-003
(PID.TID 0000.0001)    Wall clock time:  0.7717559337615967
(PID.TID 0000.0001)         No. starts:          10
(PID.TID 0000.0001)          No. stops:          10
(PID.TID 0000.0001)  Seconds in section "THE_CORRECTION_STEP [THE_MAIN_LOOP]":
(PID.TID 0000.0001)          User time:   2.460000872612000
(PID.TID 0000.0001)        System time:  2.0000010728836060E-002
(PID.TID 0000.0001)    Wall clock time:   2.513545751571655
(PID.TID 0000.0001)         No. starts:          10
(PID.TID 0000.0001)          No. stops:          10
(PID.TID 0000.0001)  Seconds in section "BLOCKING_EXCHANGES  [THE_MAIN_LOOP]":
(PID.TID 0000.0001)          User time:  4.9998998641967773E-002
(PID.TID 0000.0001)        System time:  0.0000000000000000E+000
(PID.TID 0000.0001)    Wall clock time:  6.3027024269104004E-002
(PID.TID 0000.0001)         No. starts:          10
(PID.TID 0000.0001)          No. stops:          10
(PID.TID 0000.0001)  Seconds in section "DO_THE_MODEL_IO     [THE_MAIN_LOOP]":
(PID.TID 0000.0001)          User time:  1.9999504089355469E-002
(PID.TID 0000.0001)        System time:  4.9999982118606567E-002
(PID.TID 0000.0001)    Wall clock time:  7.6692223548889160E-002
(PID.TID 0000.0001)         No. starts:          10
(PID.TID 0000.0001)          No. stops:          10
(PID.TID 0000.0001)  Seconds in section "WRITE_CHECKPOINT    [THE_MAIN_LOOP]":
(PID.TID 0000.0001)          User time:  0.0000000000000000E+000
(PID.TID 0000.0001)        System time:  0.0000000000000000E+000
(PID.TID 0000.0001)    Wall clock time:  1.5017986297607422E-003
(PID.TID 0000.0001)         No. starts:          10
(PID.TID 0000.0001)          No. stops:          10
(PID.TID 0000.0001)  Seconds in section "WRITE_CHECKPOINT   [THE_MODEL_MAIN]":
(PID.TID 0000.0001)          User time:  5.0000190734863281E-002
(PID.TID 0000.0001)        System time:  5.0000011920928955E-002
(PID.TID 0000.0001)    Wall clock time:  0.1117280721664429
(PID.TID 0000.0001)         No. starts:           1
(PID.TID 0000.0001)          No. stops:           1
(PID.TID 0000.0001) // ======================================================
(PID.TID 0000.0001) // Tile <-> Tile communication statistics
(PID.TID 0000.0001) // ======================================================
(PID.TID 0000.0001) // o Tile number: 000001
(PID.TID 0000.0001) //         No. X exchanges =              0
(PID.TID 0000.0001) //            Max. X spins =              0
(PID.TID 0000.0001) //            Min. X spins =     1000000000
(PID.TID 0000.0001) //          Total. X spins =              0
(PID.TID 0000.0001) //            Avg. X spins =       0.00E+00
(PID.TID 0000.0001) //         No. Y exchanges =              0
(PID.TID 0000.0001) //            Max. Y spins =              0
(PID.TID 0000.0001) //            Min. Y spins =     1000000000
(PID.TID 0000.0001) //          Total. Y spins =              0
(PID.TID 0000.0001) //            Avg. Y spins =       0.00E+00
(PID.TID 0000.0001) // o Tile number: 000002
(PID.TID 0000.0001) //         No. X exchanges =              0
(PID.TID 0000.0001) //            Max. X spins =              0
(PID.TID 0000.0001) //            Min. X spins =     1000000000
(PID.TID 0000.0001) //          Total. X spins =              0
(PID.TID 0000.0001) //            Avg. X spins =       0.00E+00
(PID.TID 0000.0001) //         No. Y exchanges =              0
(PID.TID 0000.0001) //            Max. Y spins =              0
(PID.TID 0000.0001) //            Min. Y spins =     1000000000
(PID.TID 0000.0001) //          Total. Y spins =              0
(PID.TID 0000.0001) //            Avg. Y spins =       0.00E+00
(PID.TID 0000.0001) // o Tile number: 000003
(PID.TID 0000.0001) //         No. X exchanges =              0
(PID.TID 0000.0001) //            Max. X spins =              0
(PID.TID 0000.0001) //            Min. X spins =     1000000000
(PID.TID 0000.0001) //          Total. X spins =              0
(PID.TID 0000.0001) //            Avg. X spins =       0.00E+00
(PID.TID 0000.0001) //         No. Y exchanges =              0
(PID.TID 0000.0001) //            Max. Y spins =              0
(PID.TID 0000.0001) //            MinNORMAL END
. Y spins =     1000000000
(PID.TID 0000.0001) //          Total. Y spins =              0
(PID.TID 0000.0001) //            Avg. Y spins =       0.00E+00
(PID.TID 0000.0001) // o Tile number: 000004
(PID.TID 0000.0001) //         No. X exchanges =              0
(PID.TID 0000.0001) //            Max. X spins =              0
(PID.TID 0000.0001) //            Min. X spins =     1000000000
(PID.TID 0000.0001) //          Total. X spins =              0
(PID.TID 0000.0001) //            Avg. X spins =       0.00E+00
(PID.TID 0000.0001) //         No. Y exchanges =              0
(PID.TID 0000.0001) //            Max. Y spins =              0
(PID.TID 0000.0001) //            Min. Y spins =     1000000000
(PID.TID 0000.0001) //          Total. Y spins =              0
(PID.TID 0000.0001) //            Avg. Y spins =       0.00E+00
(PID.TID 0000.0001) // o Tile number: 000005
(PID.TID 0000.0001) //         No. X exchanges =              0
(PID.TID 0000.0001) //            Max. X spins =              0
(PID.TID 0000.0001) //            Min. X spins =     1000000000
(PID.TID 0000.0001) //          Total. X spins =              0
(PID.TID 0000.0001) //            Avg. X spins =       0.00E+00
(PID.TID 0000.0001) //         No. Y exchanges =              0
(PID.TID 0000.0001) //            Max. Y spins =              0
(PID.TID 0000.0001) //            Min. Y spins =     1000000000
(PID.TID 0000.0001) //          Total. Y spins =              0
(PID.TID 0000.0001) //            Avg. Y spins =       0.00E+00
(PID.TID 0000.0001) // o Tile number: 000006
(PID.TID 0000.0001) //         No. X exchanges =              0
(PID.TID 0000.0001) //            Max. X spins =              0
(PID.TID 0000.0001) //            Min. X spins =     1000000000
(PID.TID 0000.0001) //          Total. X spins =              0
(PID.TID 0000.0001) //            Avg. X spins =       0.00E+00
(PID.TID 0000.0001) //         No. Y exchanges =              0
(PID.TID 0000.0001) //            Max. Y spins =              0
(PID.TID 0000.0001) //            Min. Y spins =     1000000000
(PID.TID 0000.0001) //          Total. Y spins =              0
(PID.TID 0000.0001) //            Avg. Y spins =       0.00E+00
(PID.TID 0000.0001) // o Thread number: 000001
(PID.TID 0000.0001) //            No. barriers =           6100
(PID.TID 0000.0001) //      Max. barrier spins =              1
(PID.TID 0000.0001) //      Min. barrier spins =              1
(PID.TID 0000.0001) //     Total barrier spins =           6100
(PID.TID 0000.0001) //      Avg. barrier spins =       1.00E+00
