(PID.TID 0000.0001) 
(PID.TID 0000.0001) // ======================================================
(PID.TID 0000.0001) //                      MITgcm UV
(PID.TID 0000.0001) //                      =========
(PID.TID 0000.0001) // ======================================================
(PID.TID 0000.0001) // execution environment starting up...
(PID.TID 0000.0001) // Run starting Wed Apr  1 14:19:48 1998
(PID.TID 0000.0001) // on melville.lcs.mit.edu
(PID.TID 0000.0001) // account cnh
(PID.TID 0000.0001) // MITgcm UV Release: $Name:  $
(PID.TID 0000.0001) 
(PID.TID 0000.0001) // =======================================================
(PID.TID 0000.0001) // Execution Environment parameter file "eedata"
(PID.TID 0000.0001) // =======================================================
(PID.TID 0000.0001) ># Example "eedata" file
(PID.TID 0000.0001) ># Lines beginning "#" are comments
(PID.TID 0000.0001) ># nTx - No. threads per process in X
(PID.TID 0000.0001) ># nTy - No. threads per process in Y
(PID.TID 0000.0001) > &EEPARMS
(PID.TID 0000.0001) > useCubedSphereExchange=.TRUE.,
(PID.TID 0000.0001) ># Activate one line below to support 2, 3 or 6 way multi-threading
(PID.TID 0000.0001) > nTx=1,
(PID.TID 0000.0001) >#nTx=2,
(PID.TID 0000.0001) >#nTx=3,
(PID.TID 0000.0001) >#nTx=6,
(PID.TID 0000.0001) > &
(PID.TID 0000.0001) ># Note: Some systems use & as the
(PID.TID 0000.0001) ># namelist terminator. Other systems
(PID.TID 0000.0001) ># use a / character (as shown here).
(PID.TID 0000.0001) 
(PID.TID 0000.0001) // =======================================================
(PID.TID 0000.0001) // Computational Grid Specification ( see files "SIZE.h" )
(PID.TID 0000.0001) //                                  ( and "eedata"       )
(PID.TID 0000.0001) // =======================================================
(PID.TID 0000.0001)      nPx =    1 ; /* No. processes in X */
(PID.TID 0000.0001)      nPy =    1 ; /* No. processes in Y */
(PID.TID 0000.0001)      nSx =    6 ; /* No. tiles in X per process */
(PID.TID 0000.0001)      nSy =    1 ; /* No. tiles in Y per process */
(PID.TID 0000.0001)      sNx =   32 ; /* Tile size in X */
(PID.TID 0000.0001)      sNy =   32 ; /* Tile size in Y */
(PID.TID 0000.0001)      OLx =    3 ; /* Tile overlap distance in X */
(PID.TID 0000.0001)      OLy =    3 ; /* Tile overlap distance in Y */
(PID.TID 0000.0001)      nTx =    1 ; /* No. threads in X per process */
(PID.TID 0000.0001)      nTy =    1 ; /* No. threads in Y per process */
(PID.TID 0000.0001)       Nr =    5 ; /* No. levels in the vertical   */
(PID.TID 0000.0001)       nX =  192 ; /* Total domain size in X ( = nPx*nSx*sNx ) */
(PID.TID 0000.0001)       nY =   32 ; /* Total domain size in Y ( = nPy*nSy*sNy ) */
(PID.TID 0000.0001)   nTiles =    6 ; /* Total no. tiles per process ( = nSx*nSy ) */
(PID.TID 0000.0001)   nProcs =    1 ; /* Total no. processes ( = nPx*nPy ) */
(PID.TID 0000.0001) nThreads =    1 ; /* Total no. threads per process ( = nTx*nTy ) */
(PID.TID 0000.0001) usingMPI =    F ; /* Flag used to control whether MPI is in use */
(PID.TID 0000.0001)                   /*  note: To execute a program with MPI calls */
(PID.TID 0000.0001)                   /*  it must be launched appropriately e.g     */
(PID.TID 0000.0001)                   /*  "mpirun -np 64 ......"                    */
(PID.TID 0000.0001) 
(PID.TID 0000.0001) // ======================================================
(PID.TID 0000.0001) // Mapping of tiles to threads
(PID.TID 0000.0001) // ======================================================
(PID.TID 0000.0001) // -o- Thread   1, tiles (   1:   6,   1:   1)
(PID.TID 0000.0001) 
(PID.TID 0000.0001) // ======================================================
(PID.TID 0000.0001) // Tile <-> Tile connectvity table
(PID.TID 0000.0001) // ======================================================
(PID.TID 0000.0001) // Tile number: 000001 (process no. = 000001)
(PID.TID 0000.0001) //        WEST: Tile = 000006, Process = 000001, Comm = put
(PID.TID 0000.0001) //                bi = 000006, bj = 000001
(PID.TID 0000.0001) //        EAST: Tile = 000002, Process = 000001, Comm = put
(PID.TID 0000.0001) //                bi = 000002, bj = 000001
(PID.TID 0000.0001) //       SOUTH: Tile = 000001, Process = 000001, Comm = put
(PID.TID 0000.0001) //                bi = 000001, bj = 000001
(PID.TID 0000.0001) //       NORTH: Tile = 000001, Process = 000001, Comm = put
(PID.TID 0000.0001) //                bi = 000001, bj = 000001
(PID.TID 0000.0001) // Tile number: 000002 (process no. = 000001)
(PID.TID 0000.0001) //        WEST: Tile = 000001, Process = 000001, Comm = put
(PID.TID 0000.0001) //                bi = 000001, bj = 000001
(PID.TID 0000.0001) //        EAST: Tile = 000003, Process = 000001, Comm = put
(PID.TID 0000.0001) //                bi = 000003, bj = 000001
(PID.TID 0000.0001) //       SOUTH: Tile = 000002, Process = 000001, Comm = put
(PID.TID 0000.0001) //                bi = 000002, bj = 000001
(PID.TID 0000.0001) //       NORTH: Tile = 000002, Process = 000001, Comm = put
(PID.TID 0000.0001) //                bi = 000002, bj = 000001
(PID.TID 0000.0001) // Tile number: 000003 (process no. = 000001)
(PID.TID 0000.0001) //        WEST: Tile = 000002, Process = 000001, Comm = put
(PID.TID 0000.0001) //                bi = 000002, bj = 000001
(PID.TID 0000.0001) //        EAST: Tile = 000004, Process = 000001, Comm = put
(PID.TID 0000.0001) //                bi = 000004, bj = 000001
(PID.TID 0000.0001) //       SOUTH: Tile = 000003, Process = 000001, Comm = put
(PID.TID 0000.0001) //                bi = 000003, bj = 000001
(PID.TID 0000.0001) //       NORTH: Tile = 000003, Process = 000001, Comm = put
(PID.TID 0000.0001) //                bi = 000003, bj = 000001
(PID.TID 0000.0001) // Tile number: 000004 (process no. = 000001)
(PID.TID 0000.0001) //        WEST: Tile = 000003, Process = 000001, Comm = put
(PID.TID 0000.0001) //                bi = 000003, bj = 000001
(PID.TID 0000.0001) //        EAST: Tile = 000005, Process = 000001, Comm = put
(PID.TID 0000.0001) //                bi = 000005, bj = 000001
(PID.TID 0000.0001) //       SOUTH: Tile = 000004, Process = 000001, Comm = put
(PID.TID 0000.0001) //                bi = 000004, bj = 000001
(PID.TID 0000.0001) //       NORTH: Tile = 000004, Process = 000001, Comm = put
(PID.TID 0000.0001) //                bi = 000004, bj = 000001
(PID.TID 0000.0001) // Tile number: 000005 (process no. = 000001)
(PID.TID 0000.0001) //        WEST: Tile = 000004, Process = 000001, Comm = put
(PID.TID 0000.0001) //                bi = 000004, bj = 000001
(PID.TID 0000.0001) //        EAST: Tile = 000006, Process = 000001, Comm = put
(PID.TID 0000.0001) //                bi = 000006, bj = 000001
(PID.TID 0000.0001) //       SOUTH: Tile = 000005, Process = 000001, Comm = put
(PID.TID 0000.0001) //                bi = 000005, bj = 000001
(PID.TID 0000.0001) //       NORTH: Tile = 000005, Process = 000001, Comm = put
(PID.TID 0000.0001) //                bi = 000005, bj = 000001
(PID.TID 0000.0001) // Tile number: 000006 (process no. = 000001)
(PID.TID 0000.0001) //        WEST: Tile = 000005, Process = 000001, Comm = put
(PID.TID 0000.0001) //                bi = 000005, bj = 000001
(PID.TID 0000.0001) //        EAST: Tile = 000001, Process = 000001, Comm = put
(PID.TID 0000.0001) //                bi = 000001, bj = 000001
(PID.TID 0000.0001) //       SOUTH: Tile = 000006, Process = 000001, Comm = put
(PID.TID 0000.0001) //                bi = 000006, bj = 000001
(PID.TID 0000.0001) //       NORTH: Tile = 000006, Process = 000001, Comm = put
(PID.TID 0000.0001) //                bi = 000006, bj = 000001
(PID.TID 0000.0001) 
(PID.TID 0000.0001) // =======================================================
(PID.TID 0000.0001) // Model parameter file "data"
(PID.TID 0000.0001) // =======================================================
(PID.TID 0000.0001) ># ====================
(PID.TID 0000.0001) ># | Model parameters |
(PID.TID 0000.0001) ># ====================
(PID.TID 0000.0001) >#
(PID.TID 0000.0001) ># Continuous equation parameters
(PID.TID 0000.0001) > &PARM01
(PID.TID 0000.0001) > tRef=281.089, 289.321, 307.191, 331.377, 432.413,
(PID.TID 0000.0001) > sRef=5*0.,
(PID.TID 0000.0001) > viscAr=0.E3,
(PID.TID 0000.0001) > viscAh=0.E6,
(PID.TID 0000.0001) > viscA4=0.E17,
(PID.TID 0000.0001) > no_slip_sides=.FALSE.,
(PID.TID 0000.0001) > no_slip_bottom=.FALSE.,
(PID.TID 0000.0001) > diffKhT=0.E3,
(PID.TID 0000.0001) > diffKrT=0.,
(PID.TID 0000.0001) > diffK4T=0.E17,
(PID.TID 0000.0001) > diffKrS=0.E2,
(PID.TID 0000.0001) > diffKhS=0.E3,
(PID.TID 0000.0001) > diffK4S=0.E17,
(PID.TID 0000.0001) > buoyancyRelation='ATMOSPHERIC',
(PID.TID 0000.0001) > eosType='IDEALGAS',
(PID.TID 0000.0001) > Integr_GeoPot=2,
(PID.TID 0000.0001) > gravity=9.81,
(PID.TID 0000.0001) > rhonil=1.0,
(PID.TID 0000.0001) > rhoConst=1.0,
(PID.TID 0000.0001) > rigidLid=.FALSE.,
(PID.TID 0000.0001) > implicitFreeSurface=.TRUE.,
(PID.TID 0000.0001) > exactConserv=.TRUE.,
(PID.TID 0000.0001) > uniformLin_PhiSurf=.FALSE.,
(PID.TID 0000.0001) > staggerTimeStep=.TRUE.,
(PID.TID 0000.0001) > nonHydrostatic=.FALSE.,
(PID.TID 0000.0001) > readBinaryPrec=64,
(PID.TID 0000.0001) > writeBinaryPrec=64,
(PID.TID 0000.0001) > hFacMin=0.2,
(PID.TID 0000.0001) > saltAdvScheme=3,
(PID.TID 0000.0001) > vectorInvariantMomentum=.TRUE.,
(PID.TID 0000.0001) >#useJamartWetPoints=.TRUE.,
(PID.TID 0000.0001) > &
(PID.TID 0000.0001) >
(PID.TID 0000.0001) ># Elliptic solver parameters
(PID.TID 0000.0001) > &PARM02
(PID.TID 0000.0001) > cg2dMaxIters=200,
(PID.TID 0000.0001) >#cg2dTargetResidual=1.E-12,
(PID.TID 0000.0001) > cg2dTargetResWunit=1.E-17,
(PID.TID 0000.0001) > &
(PID.TID 0000.0001) >
(PID.TID 0000.0001) ># Time stepping parameters
(PID.TID 0000.0001) > &PARM03
(PID.TID 0000.0001) > niter0=17280,
(PID.TID 0000.0001) > nTimeSteps=10,
(PID.TID 0000.0001) >#endTime=31104000.,
(PID.TID 0000.0001) > deltaT=450.0,
(PID.TID 0000.0001) > forcing_In_AB=.FALSE.,
(PID.TID 0000.0001) > abEps=0.1,
(PID.TID 0000.0001) > cAdjFreq=0.,
(PID.TID 0000.0001) > pChkptFreq=2592000.0,
(PID.TID 0000.0001) > dumpFreq=2592000.0,
(PID.TID 0000.0001) > taveFreq=2592000.0,
(PID.TID 0000.0001) >#monitorFreq=86400.,
(PID.TID 0000.0001) > monitorFreq=1.,
(PID.TID 0000.0001) > &
(PID.TID 0000.0001) >
(PID.TID 0000.0001) ># Gridding parameters
(PID.TID 0000.0001) > &PARM04
(PID.TID 0000.0001) > usingCartesianGrid=.FALSE.,
(PID.TID 0000.0001) > usingSphericalPolarGrid=.FALSE.,
(PID.TID 0000.0001) > usingCurvilinearGrid=.TRUE.,
(PID.TID 0000.0001) > delR=1.E4, 2.5E4, 3.E4, 2.E4, 1.5E4,
(PID.TID 0000.0001) > Ro_SeaLevel=1.E5,
(PID.TID 0000.0001) > groundAtK1=.TRUE.,
(PID.TID 0000.0001) > rSphere=6370.E3,
(PID.TID 0000.0001) > &
(PID.TID 0000.0001) >
(PID.TID 0000.0001) ># Input datasets
(PID.TID 0000.0001) > &PARM05
(PID.TID 0000.0001) > topoFile='topo.cs.bin',
(PID.TID 0000.0001) > &
(PID.TID 0000.0001) 
(PID.TID 0000.0001) S/R INI_PARMS ; read PARM01 : OK
(PID.TID 0000.0001) S/R INI_PARMS ; read PARM02 : OK
(PID.TID 0000.0001) S/R INI_PARMS ; read PARM03 : OK
(PID.TID 0000.0001) S/R INI_PARMS ; read PARM04 : OK
(PID.TID 0000.0001) S/R INI_PARMS ; read PARM05 : OK
(PID.TID 0000.0001)  MDSREADFIELD: opening global file: LONC.bin
(PID.TID 0000.0001)  MDSREADFIELD: opening global file: LATC.bin
(PID.TID 0000.0001)  MDSREADFIELD: opening global file: DXF.bin
(PID.TID 0000.0001)  MDSREADFIELD: opening global file: DYF.bin
(PID.TID 0000.0001)  MDSREADFIELD: opening global file: RA.bin
(PID.TID 0000.0001)  MDSREADFIELD: opening global file: LONG.bin
(PID.TID 0000.0001)  MDSREADFIELD: opening global file: LATG.bin
(PID.TID 0000.0001)  MDSREADFIELD: opening global file: DXV.bin
(PID.TID 0000.0001)  MDSREADFIELD: opening global file: DYU.bin
(PID.TID 0000.0001)  MDSREADFIELD: opening global file: RAZ.bin
(PID.TID 0000.0001)  MDSREADFIELD: opening global file: DXC.bin
(PID.TID 0000.0001)  MDSREADFIELD: opening global file: DYC.bin
(PID.TID 0000.0001)  MDSREADFIELD: opening global file: RAW.bin
(PID.TID 0000.0001)  MDSREADFIELD: opening global file: RAS.bin
(PID.TID 0000.0001)  MDSREADFIELD: opening global file: DXG.bin
(PID.TID 0000.0001)  MDSREADFIELD: opening global file: DYG.bin
(PID.TID 0000.0001) %MON XC_max                       =   1.7854351589505E+02
(PID.TID 0000.0001) %MON XC_min                       =  -1.7854351589505E+02
(PID.TID 0000.0001) %MON XC_mean                      =   5.2180482157382E-15
(PID.TID 0000.0001) %MON XC_sd                        =   1.0355545336287E+02
(PID.TID 0000.0001) %MON XG_max                       =   1.8000000000000E+02
(PID.TID 0000.0001) %MON XG_min                       =  -1.7708797161002E+02
(PID.TID 0000.0001) %MON XG_mean                      =   1.8796250616675E+00
(PID.TID 0000.0001) %MON XG_sd                        =   1.0410625309932E+02
(PID.TID 0000.0001) %MON DXC_max                      =   3.2375185836900E+05
(PID.TID 0000.0001) %MON DXC_min                      =   1.1142031410131E+05
(PID.TID 0000.0001) %MON DXC_mean                     =   2.8605689051214E+05
(PID.TID 0000.0001) %MON DXC_sd                       =   3.4042087138252E+04
(PID.TID 0000.0001) %MON DXF_max                      =   3.2369947500827E+05
(PID.TID 0000.0001) %MON DXF_min                      =   1.2020820513318E+05
(PID.TID 0000.0001) %MON DXF_mean                     =   2.8605437324820E+05
(PID.TID 0000.0001) %MON DXF_sd                       =   3.4050524252539E+04
(PID.TID 0000.0001) %MON DXG_max                      =   3.2375195872773E+05
(PID.TID 0000.0001) %MON DXG_min                      =   1.0098378008791E+05
(PID.TID 0000.0001) %MON DXG_mean                     =   2.8603818508931E+05
(PID.TID 0000.0001) %MON DXG_sd                       =   3.4140406908005E+04
(PID.TID 0000.0001) %MON DXV_max                      =   3.2380418162750E+05
(PID.TID 0000.0001) %MON DXV_min                      =   8.0152299824136E+04
(PID.TID 0000.0001) %MON DXV_mean                     =   2.8603970633619E+05
(PID.TID 0000.0001) %MON DXV_sd                       =   3.4145142117723E+04
(PID.TID 0000.0001) %MON YC_max                       =   8.7940663871962E+01
(PID.TID 0000.0001) %MON YC_min                       =  -8.7940663871962E+01
(PID.TID 0000.0001) %MON YC_mean                      =   3.7701323544563E-16
(PID.TID 0000.0001) %MON YC_sd                        =   3.8676242969072E+01
(PID.TID 0000.0001) %MON YG_max                       =   9.0000000000000E+01
(PID.TID 0000.0001) %MON YG_min                       =  -9.0000000000000E+01
(PID.TID 0000.0001) %MON YG_mean                      =  -1.2011668255785E-15
(PID.TID 0000.0001) %MON YG_sd                        =   3.9086186579984E+01
(PID.TID 0000.0001) %MON DYC_max                      =   3.2375185836900E+05
(PID.TID 0000.0001) %MON DYC_min                      =   1.1142031410131E+05
(PID.TID 0000.0001) %MON DYC_mean                     =   2.8605689051214E+05
(PID.TID 0000.0001) %MON DYC_sd                       =   3.4042087138252E+04
(PID.TID 0000.0001) %MON DYF_max                      =   3.2369947500827E+05
(PID.TID 0000.0001) %MON DYF_min                      =   1.2020820513318E+05
(PID.TID 0000.0001) %MON DYF_mean                     =   2.8605437324820E+05
(PID.TID 0000.0001) %MON DYF_sd                       =   3.4050524252539E+04
(PID.TID 0000.0001) %MON DYG_max                      =   3.2375195872773E+05
(PID.TID 0000.0001) %MON DYG_min                      =   1.0098378008791E+05
(PID.TID 0000.0001) %MON DYG_mean                     =   2.8603818508931E+05
(PID.TID 0000.0001) %MON DYG_sd                       =   3.4140406908005E+04
(PID.TID 0000.0001) %MON DYU_max                      =   3.2380418162750E+05
(PID.TID 0000.0001) %MON DYU_min                      =   8.0152299824136E+04
(PID.TID 0000.0001) %MON DYU_mean                     =   2.8603970633619E+05
(PID.TID 0000.0001) %MON DYU_sd                       =   3.4145142117723E+04
(PID.TID 0000.0001) %MON RA_max                       =   1.0479260248419E+11
(PID.TID 0000.0001) %MON RA_min                       =   1.4019007022556E+10
(PID.TID 0000.0001) %MON RA_mean                      =   8.2992246709265E+10
(PID.TID 0000.0001) %MON RA_sd                        =   1.7509089299457E+10
(PID.TID 0000.0001) %MON RAW_max                      =   1.0480965274559E+11
(PID.TID 0000.0001) %MON RAW_min                      =   1.2166903467143E+10
(PID.TID 0000.0001) %MON RAW_mean                     =   8.2992246709235E+10
(PID.TID 0000.0001) %MON RAW_sd                       =   1.7481917919657E+10
(PID.TID 0000.0001) %MON RAS_max                      =   1.0480965274559E+11
(PID.TID 0000.0001) %MON RAS_min                      =   1.2166903467143E+10
(PID.TID 0000.0001) %MON RAS_mean                     =   8.2992246709235E+10
(PID.TID 0000.0001) %MON RAS_sd                       =   1.7481917919657E+10
(PID.TID 0000.0001) %MON RAZ_max                      =   1.0484349334619E+11
(PID.TID 0000.0001) %MON RAZ_min                      =   8.8317900612505E+09
(PID.TID 0000.0001) %MON RAZ_mean                     =   8.2992246709234E+10
(PID.TID 0000.0001) %MON RAZ_sd                       =   1.7482297311044E+10
(PID.TID 0000.0001)  MDSREADFIELD: opening global file: topo.cs.bin
INI_P_GROUND: PhiRef/g [m] at Center (integer) and Interface (half-int.) levels:
  K=  0.5  ;  r=  100000.0  ;  phiRef/g=       0.000
  K=  1.0  ;  r=   95000.0  ;  phiRef/g=     418.526
  K=  1.5  ;  r=   90000.0  ;  phiRef/g=    1219.560
  K=  2.0  ;  r=   77500.0  ;  phiRef/g=    2044.053
  K=  2.5  ;  r=   65000.0  ;  phiRef/g=    3664.142
  K=  3.0  ;  r=   50000.0  ;  phiRef/g=    5384.296
  K=  3.5  ;  r=   35000.0  ;  phiRef/g=    7701.142
  K=  4.0  ;  r=   25000.0  ;  phiRef/g=   10200.400
  K=  4.5  ;  r=   15000.0  ;  phiRef/g=   13521.874
  K=  5.0  ;  r=    7500.0  ;  phiRef/g=   17856.056
  K=  5.5  ;  r=       0.0  ;  phiRef/g=   38969.174
(PID.TID 0000.0001) // =======================================================
(PID.TID 0000.0001) // Field Model R_low (ini_masks_etc) at iteration          1
(PID.TID 0000.0001) // CMIN =          1.000000000000000E+32
(PID.TID 0000.0001) // CMAX =         -1.000000000000000E+32
(PID.TID 0000.0001) // CINT =          0.000000000000000E+00
(PID.TID 0000.0001) // SYMBOLS (CMIN->CMAX): -abcdefghijklmnopqrstuvwxyz+
(PID.TID 0000.0001) //                  0.0: .
(PID.TID 0000.0001) // RANGE I (Lo:Hi:Step):(  -2: 195:   1)
(PID.TID 0000.0001) // RANGE J (Lo:Hi:Step):(  35:  -2:  -1)
(PID.TID 0000.0001) // RANGE K (Lo:Hi:Step):(   1:   1:   1)
(PID.TID 0000.0001) // =======================================================
(PID.TID 0000.0001) K =   1
(PID.TID 0000.0001) //                I=7       I=17      I=27      I=31      I=41      I=51      I=61      I=65      I=75      I=85      I=95      I=99      I=109     I=119     I=129     I=133     I=143     I=153     I=163     I=167     I=177     I=187
(PID.TID 0000.0001) // |--J--|**0123456|890123456|890123456|890123450|234567890|234567890|234567890|234567234|678901234|678901234|678901234|678945678|012345678|012345678|012345678|016789012|456789012|456789012|456789012|890123456|890123456|890123456|89012345
(PID.TID 0000.0001) //     35 ....................................................................................................................................................................................................................................
(PID.TID 0000.0001) //     34 ....................................................................................................................................................................................................................................
(PID.TID 0000.0001) //     33 ....................................................................................................................................................................................................................................
(PID.TID 0000.0001) //     32 ....................................................................................................................................................................................................................................
(PID.TID 0000.0001) //     31 ....................................................................................................................................................................................................................................
(PID.TID 0000.0001) //     30 ....................................................................................................................................................................................................................................
(PID.TID 0000.0001) //     29 ....................................................................................................................................................................................................................................
(PID.TID 0000.0001) //     28 ....................................................................................................................................................................................................................................
(PID.TID 0000.0001) //     27 ....................................................................................................................................................................................................................................
(PID.TID 0000.0001) //     26 ....................................................................................................................................................................................................................................
(PID.TID 0000.0001) //     25 ....................................................................................................................................................................................................................................
(PID.TID 0000.0001) //     24 ....................................................................................................................................................................................................................................
(PID.TID 0000.0001) //     23 ....................................................................................................................................................................................................................................
(PID.TID 0000.0001) //     22 ....................................................................................................................................................................................................................................
(PID.TID 0000.0001) //     21 ....................................................................................................................................................................................................................................
(PID.TID 0000.0001) //     20 ....................................................................................................................................................................................................................................
(PID.TID 0000.0001) //     19 ....................................................................................................................................................................................................................................
(PID.TID 0000.0001) //     18 ....................................................................................................................................................................................................................................
(PID.TID 0000.0001) //     17 ....................................................................................................................................................................................................................................
(PID.TID 0000.0001) //     16 ....................................................................................................................................................................................................................................
(PID.TID 0000.0001) //     15 ....................................................................................................................................................................................................................................
(PID.TID 0000.0001) //     14 ....................................................................................................................................................................................................................................
(PID.TID 0000.0001) //     13 ....................................................................................................................................................................................................................................
(PID.TID 0000.0001) //     12 ....................................................................................................................................................................................................................................
(PID.TID 0000.0001) //     11 ....................................................................................................................................................................................................................................
(PID.TID 0000.0001) //     10 ....................................................................................................................................................................................................................................
(PID.TID 0000.0001) //      9 ....................................................................................................................................................................................................................................
(PID.TID 0000.0001) //      8 ....................................................................................................................................................................................................................................
(PID.TID 0000.0001) //      7 ....................................................................................................................................................................................................................................
(PID.TID 0000.0001) //      6 ....................................................................................................................................................................................................................................
(PID.TID 0000.0001) //      5 ....................................................................................................................................................................................................................................
(PID.TID 0000.0001) //      4 ....................................................................................................................................................................................................................................
(PID.TID 0000.0001) //      3 ....................................................................................................................................................................................................................................
(PID.TID 0000.0001) //      2 ....................................................................................................................................................................................................................................
(PID.TID 0000.0001) //      1 ....................................................................................................................................................................................................................................
(PID.TID 0000.0001) //      0 ....................................................................................................................................................................................................................................
(PID.TID 0000.0001) //     -1 ....................................................................................................................................................................................................................................
(PID.TID 0000.0001) //     -2 ....................................................................................................................................................................................................................................
(PID.TID 0000.0001) // =======================================================
(PID.TID 0000.0001) // END OF FIELD                                          =
(PID.TID 0000.0001) // =======================================================
(PID.TID 0000.0001) 
(PID.TID 0000.0001) // =======================================================
(PID.TID 0000.0001) // Field Model Ro_surf (ini_masks_etc) at iteration          1
(PID.TID 0000.0001) // CMIN =          4.782978183284863E+04
(PID.TID 0000.0001) // CMAX =          1.000000000000000E+05
(PID.TID 0000.0001) // CINT =          1.932230302487088E+03
(PID.TID 0000.0001) // SYMBOLS (CMIN->CMAX): -abcdefghijklmnopqrstuvwxyz+
(PID.TID 0000.0001) //                  0.0: .
(PID.TID 0000.0001) // RANGE I (Lo:Hi:Step):(  -2: 195:   1)
(PID.TID 0000.0001) // RANGE J (Lo:Hi:Step):(  35:  -2:  -1)
(PID.TID 0000.0001) // RANGE K (Lo:Hi:Step):(   1:   1:   1)
(PID.TID 0000.0001) // =======================================================
(PID.TID 0000.0001) K =   1
(PID.TID 0000.0001) //                I=7       I=17      I=27      I=31      I=41      I=51      I=61      I=65      I=75      I=85      I=95      I=99      I=109     I=119     I=129     I=133     I=143     I=153     I=163     I=167     I=177     I=187
(PID.TID 0000.0001) // |--J--|**0123456|890123456|890123456|890123450|234567890|234567890|234567890|234567234|678901234|678901234|678901234|678945678|012345678|012345678|012345678|016789012|456789012|456789012|456789012|890123456|890123456|890123456|89012345
(PID.TID 0000.0001) //     35 ...++++++++++++++zy+yxxxxxz+zwwnnnn......smnszzzzzzxxxxwqpoousuwvyyww+++x......++++++++++++xwxzyywuklorsx++++++......++++++++++++++++++++++++++++++++......+++++++++++++++++zxxyz++++++++++......++++++++++++++++++++++++++++++++...
(PID.TID 0000.0001) //     34 ...+++++++++++++++zzxwvwwvz+++onmno......unnw+zzzzzyxwwtlomnsrvvvxyvy+++y......+++++++++++zxyyyyxwulmnnnx++++++......++++++++++++++++++++++++++++++++......+++++++++++++++++xxxwwxwy+++++++......++++++++++++++++++++++++++++++++...
(PID.TID 0000.0001) //     33 ...+++++++++++++++zxrswwwxyzstqssuu......uonx+yzzyyxxwrpslmlquvvtwywx+++z......++++++++++zxxyyyyxwunmnopw++++++......++++++++++++++++++++++++++++++++......+++++++++++++++++zyxwwwwv+++++++......++++++++++++++++++++++++++++++++...
(PID.TID 0000.0001) //     32 ++++++++++++++++++xvwwwwtwxwvptxxyxvooxyxvoonzwwzxxnmmkloppsstttty++xx+xxxvt+++++++++++++yxyyyxxxxvqmnqqu+++++++++++++++++++++++++++++++++++++++++++++++++++++++++++++++++++zyxwwwwvy+++++++++++++++++++++++++++++++++++++++++++++++
(PID.TID 0000.0001) //     31 ++++++++++++++++zvuy+zzwxvzwswxwxyzwpoxyzwpoorsoxxoifmsvvunnsstrwzz+zyzxxz+++++++++++++zzxxxyxyxyxwvqnssy+++++++++++++++++++++++++++++++++++++++++++++++++++++++++++++++++++zyyxwwwwwxy+++++++++++++++++++++++++++++++++++++++++++++
(PID.TID 0000.0001) //     30 +++++++++++++++++ww++++y++++++xwwxzztlwxzztlotussooediolggfdiosuyz++++wx+++++++++++++++zzxxxyzyxyxwwtpuw+++++++++++++++++++++++++++++++++++++++++++++++++++++++++++++++++zzzyyxxxwxxwvw+++++++++++++++++++++++++++++++++++++++++++++
(PID.TID 0000.0001) //     29 +++++++++++++++++xxwvw++++++++wwwxyzzqwxyzzqmoutolkke-aaaacdhmrvyz++++++++++++++++++++zzxwwxy+zyyxxwupsw+++++++++++++++++++++++++++++++++++++++++++++++++++++++++++++++++yyzzyxxxxxxxxxy++++++++++++++++++++++++++++++++++++++++++++
(PID.TID 0000.0001) //     28 ++++++++++++++++vovwxxxyzzzzzxvwwwxyzxwwxyzxonnstnpymbaaaa-bektuyxxy+++++++++++++++++++yxxxxz++zyxxwvprx++++++++++++++++++++++++++++++++++++++++++++++++++++++++++++++++zyyzzyxxxyyyyzyyz+++++z+++++++++++++++++++++++++++++++++++++
(PID.TID 0000.0001) //     27 +++++++++++++++yuwxxxxxwxzzzyxxvvvwxyzvvwxyzwvurppxyyia--bbbcrvwyxwy++++++++++++++++++++zxxyz+++yxxxwuty++++++++++++++++++++++++++++++++++++++++++++++++++++++++++++++++xwyz+zyxxyzzzzzzz+++++z+++++++++++++++++++++++++++++++++++++
(PID.TID 0000.0001) //     26 ++++++++++++++zxxxyxwwwxxyxxxyxxwwwwxzwwwwxzzx+yxxzxxxxmmmohhntwwxww++++++++++++++++++++++yzx++zyxxxxtsy+++++++++++++++++++++++++++++++++++++++++++++++++++++++++++++++ywvy++zyxxyxyzz+++z+++++z++++++++++++++++++++++++++++++++++++
(PID.TID 0000.0001) //     25 ++++++++++++++yyyyyxutvwwwxwxyxw+uwwxz+uwwxzzwx+++zxxxxxzwwroqvxxyvv+++++++++++++++++++++++xz+yyzyxxwssz+++++++++++++++++++++++++++++++++++++++++++++++++++++++++++++++xvuw+++yyxlkltxxyzy++++zy++++++++++++++++++++++++++++++++++++
(PID.TID 0000.0001) //     24 ++++++++++++++yyyyyxwwwwppxwxyxw+pswxy+pswxyzz++++zxxxxx+ywttuxz++++++++++++++++++++++++xz+vy+yzzyxxvtt+++++++++++++++++++++++++++++++++++++++++++++++++zz+++++++++++++wxxzzzzzwifeeeltwyz++++yz++++++++++++++++++++++++++++++++++++
(PID.TID 0000.0001) //     23 ++++++++++++++zyyyyxxvwxxxwwxxxxvxnwwwvxnwwwz++++++xxyx+++zwwwxz+++vy+++++++++++++++++++mqzzxwyy+yyxvtrx++++++++++++++++++++++++++++++++++++++++++++++++zz++++++++++w+zsnyyzzzygdlnzneghsxwy++sxwy++++++++++++++xvvxz+++++++++++++++
(PID.TID 0000.0001) //     22 ++++++++++++++zyyyyxxxxyyxwwwwxwoxnsx+oxnsx++++++++yxy+++++yxxwx+++x++++++++++++++++++++smrzzzxz+zzywvsvxz++++++++++++++++++++++++++++++++++++++++++++++xxyz+++++++++++vqmwzzyvfg++++++wrtuwwzrtuwwz+++++++++++slkiknqv+++++++++++++
(PID.TID 0000.0001) //     21 ++++++++++++++yxxyyyyxxyyxwvwwxpmvx+++mvx+++++++++++wx++++++zyzw+++yz+++++++++++++++++++sklnuxwz+z++wvvqwyz+++++++++++++++++++++++++++++++++++++++++++++xxxxz++++++y++++vvlrwngn++++++++++xvuv++xvuvyy+++w+++++plkikkllt++++++++++++
(PID.TID 0000.0001) //     20 ++++++++++++++xxxyyxxwxxxxwwxxxolquvw+lquvw+++++++++wz++++++z+++++++yy++++++++++++++++z+vkklnvsy+++++uxxx+z+++++++++++++++++++++++++++++++++++++++++++++xxyxxxz++++z+++zy++sms++++++++++++++wv++++wvy++++vvz++xplkiikllq++++++++++++
(PID.TID 0000.0001) //     19 +++++++++++++++xxyyyyyuwwxwwwxxpmpwxy+mpwxy++++++++++x++++++y+++++x+yw+++++++z++++++++w++rmmnws++++++yxyz+++++++++++++++++++++++++++++++++++++++++++++++yyyyywwz+++++++u++++++++++++++++++++++++++++++++++sqx+xsmkiilmtw++++++++++++
(PID.TID 0000.0001) //     18 z++++++++++++++++++++zwwxxxwwvvvtwxy++twxy+++++++++++++++++wwx+++wx+++++++++wv+++zzz++++++wsqz+++++++++z++++++++++++++++++++++++++++++++++++++++++++++++zxyyyxxz+++++wwy+++++++++++++++++++++++++++++++++++wtzxrmlihiklmw+++++++++++
(PID.TID 0000.0001) //     17 z+++++++++++++++++++++yxxyxxwrvptyz+++tyz++++++++++++++++++ywz+zxwwz++z+++++wuxzzyyy++++++++z+++++++++zy++++++++++++++++++++++++++++++++++++++++++++++++yyxyyzzz+++++vv++++++++++++++++++++++++++++++++++++wvvvrmkighiikq+++++++++++
(PID.TID 0000.0001) //     16 z+++++++++++++++++++++yxxyxxvouosz++++sz++++++++++++++++++++wy++yy+vy+zyyyy++yvxz+++++++++++++++++++++wyy++++++++++++++++++++++++++++++++++z++++++++++++xxxyyyyz++++zpy++++++++++++++++++++++++++++++++++++wuooomkkiiiikp+++++++++++
(PID.TID 0000.0001) //     15 yzzzxz+++++++++++++++++xxxxxvqurt+++++t++++++++++++++++++++++wz++z+xx+++ynnp++wrxy++vvx+++zx+++++++++zwxw+++++++++++++++++++++++++++++++++++++++++xxz+++yyxxxyyz++++zw+++++++++++++++++++++++++++++++++++++zvqsvnllkiiklp+++++++++++
(PID.TID 0000.0001) //     14 yyyyxxx++++++++++++++++ywwwwvtttw+++++w+++++++++++++++++++++++yyyz+++++++++p+zwswx+zzwwwx++++++++++++zxwy+++++++++++++++++++++++++++++++++++++++++++wx++xxxwwwxxyzzxnx++++++++++++++++++++++++++++++++++++++vovx+qnmkklmq+++++++++++
(PID.TID 0000.0001) //     13 xyxxxxy++++++++++++++++xuvvvttrsx+++++x+++++++++++++++++++++++++++y+z++++++++zwwvxz+++zyy++++++y++++zzxwxww+++++++++++++++++++++++++++++++++++++++++++++wwvuuuvwwvpnm+++++++++++++++++++++++++++++++++++++++zpvy+zpmlllpw+++++++++++
(PID.TID 0000.0001) //     12 xxwwwy+++++++++++++++++urtvuutuwxz++++xz++++++++++++++++++++++++++++++++z+++ywwwwxzzzzzyy++yx+++y++zxwwwxzwx++++++++++++++++++++++++++++++++z+++++++++++wvqnlkorsrnos+++++++++++++++++++++++++++++++++++++++++++++rnmlmu++++++++++++
(PID.TID 0000.0001) //     11 xwwwwz+++++++++++++++++uuuvvvvvwwz++v+wz++v++++++++++++++++++++++++++zzzy++z+xtwwxzzzzzzz++z++zzzzywwssvy++y++++++++++++++++++++++++++++++++++++++++++++tqmmmlnronu+++++++++++++++++++++++++++++++++++++++++++++++qonnpz++++++++++++
(PID.TID 0000.0001) //     10 wwwwx++++++++++++++++++uvvvvvtvy+++vv++++vv+++++++++++++++++++++++++zxxyyy+z+vwxvxzzzzzzzzzzz+zyxxywuuqw++++++++++++++++++++++++++++++++z+++++++++++++++pnnnnootw+++++++++++++++++++++++++++++++++++++++++++++++++srswx+++++++++++++
(PID.TID 0000.0001) //      9 xwwww++++++++++++++++++xstvvvvw++++rv++++rv++++++++++++++++++++++++zyyxyyyyz+zxyzzzzzzzzzzwxz+zwwxxyyyww++++++++++++++++++++++++++++++++++++++++++++++++usqonrwxxx++++++++++++++++++++++++++++++++++++++++++++++++++++++++++++++++++
(PID.TID 0000.0001) //      8 xwvvy+++++++++++++++++++ruvvvwz++++uz++++uz++++++++++++++++++++++yxxyxxxxyyy+wwz++zzzzzzzxzzzzzxxxxyxxwvyyy+++++++++++++++++++++++++++++++++++++++++++++wsqpnsuz++++++++++++++++++++++++++++++++++++++++++++++++++++++++++++++++++++
(PID.TID 0000.0001) //      7 wwy+++++++++++++++++++++tvvuss+++++w+++++w+++++++++++++++++++++++yxxxxxxxyzz+svs+zzzzzzzzyzzzzzxxxxwwwuwvxxyz+++++z+++++++++++++++++++++++++++yxwxww+w+++yuwxx++++++++++++++++++++++++++++++++++++++++++++++++++++++++++++++++++++++
(PID.TID 0000.0001) //      6 vx++++++++++++++++++++++xwutpt+++++++++++++++++++++++++++++++++++yxxxxxxxz+z+wpt+wwzzzzyxzzzzzzxxxwvtwxxwxw+xz++++xz++++++++++++++++++++y++++zxyzyywy+++++++++++++++++++++++++++++++++++++++++++++++++++++++++++++++++++++++++++++++
(PID.TID 0000.0001) //      5 wy++++++++++++++++++++++zutrp++++++++++++++++++++++++++++++++++++yxxyyyyyz+zxxtqownz++zyxzzzzzzyyxwrvwwxxxw++xy++++xy++++++++++++++++++vw+++yyxyzzzzx+++++++++++++++++++++++++++++++++++++++++++++++++++++++++++++++++++++++++++++++
(PID.TID 0000.0001) //      4 +++++++++++++++++++++++++xxx+++++++++++++++++++++++++++++++++++++yyyzzzzzzyzwwxsnnmz++zyyyyzzywwtuwuvwwyxwx+++xy++++xy++++++++++++++++vn++zxwyyzzzzzz+++++++++++++++++++++++++++++++++++++++++++++++++++++++++++++++++++++++++++++++
(PID.TID 0000.0001) //      3 ++++++++++++++++++++++++++++++++++++++++++++++++++++++++++++++++++++++++zzyywxxsmnszzzzzzxxxxwqpoousuwvyyww+++xt++++xt++++++++++++++++pp++zzzyzzzzyyz+++++++++++++++++++++++++++++++++++++++++++++++++++++++++++++++++++++++++++++++
(PID.TID 0000.0001) //      2 +++++++++++++++++++++++++++++++++++++++++++++++++++++++++++++++++++++++++yyyxyyunnw+zzzzzyxwwtlomnsrvvvxyvy+++yv++++yv+++++++++++++++yn+++++yyz++yyy++++++++++++++++++++++++++++++++++++++++++++++++++++++++++++++++++++++++++++++++
(PID.TID 0000.0001) //      1 +++++++++++++++++++++++++++++++++++++++++++++++++++++++++++++++++++++++++++zzzxuonx+yzzyyxxwrpslmlquvvtwywx+++zxz+++zxz++++++++++++++yn++++yyyyzzzzy+++++++++++++++++++++++++++++++++++++++++++++++++++++++++++++++x++++++w++++++++z
(PID.TID 0000.0001) //      0 ...++++++++++++++++++++++++++++++++......++++++++++++++++++++++++++++++++......voonzwwzxxnmmkloppsstttty++xx+xx......xx++++++++++++++yy++zyyyxxxyzz++......++++++++++++++++++++++++++++++++......+++++++++++++++++zw+++++++yxzz++...
(PID.TID 0000.0001) //     -1 ...++++++++++++++++++++++++++++++++......++++++++++++++++++++++++++++++++......wpoorsoxxoifmsvvunnsstrwzz+zyzxx......xxx+++++++++++++y++++zyyxxxyz+++......++++++++++++++++++++++++++++++++......+++++++++++++++++x+++++++wwzzyyy...
(PID.TID 0000.0001) //     -2 ...++++++++++++++++++++++++++++++++......++++++++++++++++++++++++++++++++......ztlotussooediolggfdiosuyz++++wx+......+zw++++++++++++zz++++zxxxxxyz+++......++++++++++++++++++++++++++++++++......+++++++++++++++++x+++++++wyzzyyz...
(PID.TID 0000.0001) // =======================================================
(PID.TID 0000.0001) // END OF FIELD                                          =
(PID.TID 0000.0001) // =======================================================
(PID.TID 0000.0001) 
(PID.TID 0000.0001) // =======================================================
(PID.TID 0000.0001) // Field hFacC at iteration          1
(PID.TID 0000.0001) // CMIN =          2.000000000000000E-01
(PID.TID 0000.0001) // CMAX =          1.000000000000000E+00
(PID.TID 0000.0001) // CINT =          2.962962962962963E-02
(PID.TID 0000.0001) // SYMBOLS (CMIN->CMAX): -abcdefghijklmnopqrstuvwxyz+
(PID.TID 0000.0001) //                  0.0: .
(PID.TID 0000.0001) // RANGE I (Lo:Hi:Step):(  -2: 195:   1)
(PID.TID 0000.0001) // RANGE J (Lo:Hi:Step):(  35:  -2:  -1)
(PID.TID 0000.0001) // RANGE K (Lo:Hi:Step):(   1:   1:   1)
(PID.TID 0000.0001) // =======================================================
(PID.TID 0000.0001) K =   1
(PID.TID 0000.0001) //                I=7       I=17      I=27      I=31      I=41      I=51      I=61      I=65      I=75      I=85      I=95      I=99      I=109     I=119     I=129     I=133     I=143     I=153     I=163     I=167     I=177     I=187
(PID.TID 0000.0001) // |--J--|**0123456|890123456|890123456|890123450|234567890|234567890|234567890|234567234|678901234|678901234|678901234|678945678|012345678|012345678|012345678|016789012|456789012|456789012|456789012|890123456|890123456|890123456|89012345
(PID.TID 0000.0001) //     35 ...++++++++++++++vpyojigefrxwb-..............xwutrthhgj-.......-.nlad+++h......++++++++++++iajslkd......g++++++......++++++++++++++++++++++++++++++++......+++++++++++++++++tghpuy+++++++++......++++++++++++++++++++++++++++++++...
(PID.TID 0000.0001) //     34 ...+++++++++++++++xsib.dd.v+++..............a+tsuuslfa-..........jl.k+++p......+++++++++++ugknqojd......g++++++......++++++++++++++++++++++++++++++++......+++++++++++++++++hff-cdco+++++++......++++++++++++++++++++++++++++++++...
(PID.TID 0000.0001) //     33 ...+++++++++++++++wd..-bbglt................i+otupoggc...........cp-g+++v......++++++++++xhgknplid......-++++++......++++++++++++++++++++++++++++++++......+++++++++++++++++uogdd--.+++++++......++++++++++++++++++++++++++++++++...
(PID.TID 0000.0001) //     32 ++++++++++++++++++f.cd-d.-j-...fiph...iph....t-bsjf..............mxyfh+jhj..++++++++++++zlflkljijg.......++++++++++++++++++++++++++++++++++++++++++++++++++++++++++++++++++yrmfcbb-.o+++++++++++++++++++++++++++++++++++++++++++++++
(PID.TID 0000.0001) //     31 ++++++++++++++++u..m+ttai.w-.-hcjmt-..jmt-......jg..............buu+vlvehw+++++++++++++wvkgimjkilgb.....m++++++++++++++++++++++++++++++++++++++++++++++++++++++++++++++++++zsonh--cdbdp+++++++++++++++++++++++++++++++++++++++++++++
(PID.TID 0000.0001) //     30 +++++++++++++++++c-++++p++++++g-bhtr..bhtr......................oqx+z+ch+++++++++++++++uuifipunjohd-...d+++++++++++++++++++++++++++++++++++++++++++++++++++++++++++++++++wswoljjibhi-.-+++++++++++++++++++++++++++++++++++++++++++++
(PID.TID 0000.0001) //     29 +++++++++++++++++ff-.bx+++++++---fktx.-fktx.....................mwx+++z+++++++++++++++sskcdiqxsopjfc...d++++++++++++++++++++++++++++++++++++++++++++++++++++++++++++++++xoluumiiedgigfhp++++++++++++++++++++++++++++++++++++++++++++
(PID.TID 0000.0001) //     28 ++++++++++++++++...-iihlwrttuh.-aafkxiaafkxi.......k............phio+++++++++++++++++++qigfjt+zuoigd...f++++++++++++++++++++++++++++++++++++++++++++++++++++++++++++++++wlnvxlkjjoploqqqt+++++t+++++++++++++++++++++++++++++++++++++
(PID.TID 0000.0001) //     27 +++++++++++++++l.-ffjjecjtttphg...cdlw..cdlwc.....emm..........aki-q++++++++++++++++++++tijnv++ypihdb..o+++++++++++++++++++++++++++++++++++++++++++++++++++++++++++++++zhbmvyuniglsvwwwvw+++++w+++++++++++++++++++++++++++++++++++++
(PID.TID 0000.0001) //     26 ++++++++++++++uigjliccdeemjijohf---ahw---ahwvf+lffsikji........bcfab++++++++++++++++++++++orj++wpkjfd..p+++++++++++++++++++++++++++++++++++++++++++++++++++++++++++++++m-.kzzwlijliqsvxxxu++++xu++++++++++++++++++++++++++++++++++++
(PID.TID 0000.0001) //     25 +++++++++++++yonlnof...adbh-goid+.-akt+.-aktvdf+++wfhhhjw--....jiq..+++++++++++++++++++++++grxonrkji-..r+++++++++++++++++++++++++++++++++++++++++++++++++++++++++++++++h..ayyxooi....jilvo++++vo++++++++++++++++++++++++++++++++++++
(PID.TID 0000.0001) //     24 +++++++++++++yoklloh--ca..fbgmi-+..aho+..ahott++++uigghi+pd...jwy++++++++++++++++++++++zis+.kxorulhj...+++++++++++++++++++++++++++++++++++++++++++++++++uw+++++++++++++bjktvxuqc.......amqy+++mqy+++++++++++++++++++++++++++++++++++
(PID.TID 0000.0001) //     23 +++++++++++++yslllkfh.-iii-aghid.j.-bc.j.-bcu++++++ifkd+++q-a-ht+++.m++++++++++++++++++x..vshaqqyqlj...e++++++++++++++++++++++++++++++++++++++++++++++++uvz+++++++++b+v..mmvwrm....s.....fdo++.fdo++++++++++++++g..ew+++++++++++++++
(PID.TID 0000.0001) //     22 +++++++++++++ysonlmijghkmi--adi-.j..f+.j..f++++++++lfk+++++ogj-f+++j++++++++++++++++++++...sxxeuyrsld...jv++++++++++++++++++++++++++++++++++++++++++++++iklx+++++++++++...dvwn...++++++a...-ds...-ds+++++++++++........y++++++++++++
(PID.TID 0000.0001) //     21 +++++++++++++zojjlmmlhilmfb.cch...g+++..g+++++++++++ae+++++ytlqb+++ls+++++++++++++++++++.....jdtxuz+d...dmr+++++++++++++++++++++++++++++++++++++++++++++fgfhu++++++k+++z....a...++++++++++i...++i...qk+++b+++++.........++++++++++++
(PID.TID 0000.0001) //     20 ++++++++++++++gehkojjafejicbggg.....-+....-+++++++++cw++++++txxz++zxkl++++++++++++++++u+.......l+++++.gjhxw+++++++++++++++++++++++++++++++++++++++++++++iilggiv++++w+++ro+x...++++++++++++++a.++++a.q++++..r++g.........++++++++++++
(PID.TID 0000.0001) //     19 ++++++++++++++ziiooono.--gcadgf...cem+..cem++++++++++j++++++o+++++j+pa+++++++u++++++++c+z....-.++++++ojpv+++++++++++++++++++++++++++++++++++++++++++++++pmkkkacvyz+x+++.++++++++++++++++++++++++++++++++++..g+d........-++++++++++++
(PID.TID 0000.0001) //     18 w++++++++++++++++++++u-cdgfdb....-iq++.-iq+++++++++++++++++-cj+++-d+++++++++c.+++vuv++++++-..w++++++++zs++++++++++++++++++++++++++++++++++++++++++++++++ujlnnjfry++++--l+++++++++++++++++++++++++++++++++++b.vg.........-+++++++++++
(PID.TID 0000.0001) //     17 s+++++++++++++++++++++kfhkkh-....ow+++.ow++++++++++++++++++p-w+wj-dv++u+++++-.fwxpok++++++++v++++++++ztk++++++++++++++++++++++++++++++++++++++++++++++++nkjpqssuz++zx..++++++++++++++++++++++++++++++++++++a.............+++++++++++
(PID.TID 0000.0001) //     16 wzy+++++++++++++++++++qfgkig.....w++++.w++++++++++++++++++++-kz+ll+.l+wqopn++m.dsy+++++++++++++++++++ycnn++++++++++++++++++++++++++++++++++u++++++++++++jiilolqxz+++u.q++++++++++++++++++++++++++++++++++++c.............+++++++++++
(PID.TID 0000.0001) //     15 osruht+++++++++++++++++jefge.....+++++.++++++++++++++++++++++bw++x+fi++zn...++c.iozz..iz++wh+++++++++ucf-+++++++++++++++++++++++++++++++++++++++++jjt+++oljijkluy+++s-+++++++++++++++++++++++++++++++++++++v.............+++++++++++
(PID.TID 0000.0001) //     14 lomofgh++++++++++++++++n----....-+++++-+++++++++++++++++++++++oppw+++++++++.+td.bjyurcc-e++++++++++z+ui-k+++++++++++++++++++++++++++++++++++++++++++ch++hggdddgiluve.h++++++++++++++++++++++++++++++++++++++...iz........+++++++++++
(PID.TID 0000.0001) //     13 jnfgfhm++++++++++++++++g........f+++++f+++++++++++++++++++++++++++mysy+++++++t--.iuyyywql++++++p++yyvtg-i-c+++++++++++++++++++++++++++++++++++++++++++++db.....-a....+++++++++++++++++++++++++++++++++++++++x..m+v......d+++++++++++
(PID.TID 0000.0001) //     12 jhcd-p+++++++++++++++++........-hr++++hr++++++++++++++++++++++++++++++++xz+zpadbdgtvwwtqn++mgx+xl+zugd--gs-h++++++++++++++++++++++++++++++++v+++++++++++-............+++++++++++++++++++++++++++++++++++++++++++++......++++++++++++
(PID.TID 0000.0001) //     11 i-bdcu+++++++++++++++++........-dr++.+dr++.++++++++++++++++++++++++++rvsqz+w+i.bdesrtvtuvyzvzzvruup-a...p+xo++++++++++++++++++++++++++++++++++++++++++++...........+++++++++++++++++++++++++++++++++++++++++++++++.....w++++++++++++
(PID.TID 0000.0001) //     10 b-b-dy+++++++++++++++++........nx++..+x++..+++++++++++++++++++++++++whinqpxv+.-g.frsrrttutwrxxtnijpc...-+z++++++++++++++++++++++++++++++r+++++++++++++++........-x++++++++++++++++++++++++++++++++++++++++++++++++...-j+++++++++++++
(PID.TID 0000.0001) //      9 hc--c++++++++++++++++++i......-y+++..++++..++++++++++++++++++++++zyuqljklont+wjlvrtsrsutusdexxq-deioomdd++++++++++++++++++++++++++++++++z+++++++++++++++......cijh++++++++++++++++++++++++++++++++++++++++++++++++++++++++++++++++++
(PID.TID 0000.0001) //      8 id..o+++++++++++++++++++.....-sx+++.u++++.u++++++++++++++++++++++nehkjiggmop+--t+xtssuutsgrwwwtfefimif-.nnn++++++++++++++++++++++++++++x++++++++++++++++d......v++++++++++++++++++++++++++++++++++++++++++++++++++++++++++++++++++++
(PID.TID 0000.0001) //      7 -bo+++++++++++++++++++++......y++++c+++++c+++++++++++++++++++++++mgfihffgout+...+wvttrstrlwwwuthhhhdb-.-.fjpu+++++u+++++++++++++++++++++++++++nhadbbzc+++m.-gg++++++++++++++++++++++++++++++++++++++++++++++++++++++++++++++++++++++
(PID.TID 0000.0001) //      6 .d++++++++++++++++++++++f-....+++++++++++++++++++++++++++++++++++mhgihffiuyv+-..+bbutwvnerwwwwuhihd..-di-ia+hv++++hv++++++++++++++++++++k+++xrjlrmkcly++++++++++++++++++++++++++++++++++++++++++++++++++++++++++++++++++++++++++++++
(PID.TID 0000.0001) //      5 -p++++++++++++++++++++++s....++++++++++++++++++++++++++++++++++++oijknmmqvyvgh...-.wzzulisuvwvslkg-..-bjhib++jl++++jl++++++++++++++++++.d+++mlhntruvj+++++++++++++++++++++++++++++++++++++++++++++++++++++++++++++++++++++++++++++++
(PID.TID 0000.0001) //      4 +++++++++++++++++++++++++fee+++++++++++++++++++++++++++++++++++++okntuttttnv-cf....x++tmpqnsup--..-..--nece+++el++++el++++++++++++++++..++tfdnprttwwu+++++++++++++++++++++++++++++++++++++++++++++++++++++++++++++++++++++++++++++++
(PID.TID 0000.0001) //      3 +++++++++++++++++++++++++++++++++++++++++++++++++++++++++++++++++++++++zurmnbji....xwutrthhgj-.......-.nlad+++h.++++h.++++++++++++++++..+zwvtptvvvnpx+++++++++++++++++++++++++++++++++++++++++++++++++++++++++++++++++++++++++++++++
(PID.TID 0000.0001) //      2 +++++++++++++++++++++++++++++++++++++++++++++++++++++++++++++++++++++++++qpphmp...a+tsuuslfa-..........jl.k+++p.++++p.+++++++++++++++n.++++xnouyynmpy++++++++++++++++++++++++++++++++++++++++++++++++++++++++++++++++++++++++++++++z
(PID.TID 0000.0001) //      1 +++++++++++++++++++++++++++++++++++++++++++++++++++++++++++++++++++++++++zyxtth...i+otupoggc...........cp-g+++vjw+++vjw++++++++++++++p.++zzpomouvtrqz++++++++++++++++++++++++++++++++++++++++++++++++++++++++++++++h++++++cy+++++++u
(PID.TID 0000.0001) //      0 ...++++++++++++++++++++++++++++++++......++++++++++++++++++++++++++++++++..........t-bsjf..............mxyfh+jh......hh++++++++++++++on++xqqlggiqtu++......++++++++++++++++++++++++++++++++......+++++++++++++++++tc++++++zljuxyz...
(PID.TID 0000.0001) //     -1 ...++++++++++++++++++++++++++++++++......++++++++++++++++++++++++++++++++......-......jg..............buu+vlveh......jeh+++++++++++++qz+++snkgffmtz++......++++++++++++++++++++++++++++++++......+++++++++++++++++j+++++++bcvwppq...
(PID.TID 0000.0001) //     -2 ...++++++++++++++++++++++++++++++++......++++++++++++++++++++++++++++++++......r......................oqx+z+ch+......+vcz+++++++++++uw++++vijiffmt+++......++++++++++++++++++++++++++++++++......+++++++++++++++++j+++++++bkuwnmr...
(PID.TID 0000.0001) // =======================================================
(PID.TID 0000.0001) // END OF FIELD                                          =
(PID.TID 0000.0001) // =======================================================
(PID.TID 0000.0001) 
(PID.TID 0000.0001) // =======================================================
(PID.TID 0000.0001) // Field hFacW at iteration          1
(PID.TID 0000.0001) // CMIN =          2.000000000000000E-01
(PID.TID 0000.0001) // CMAX =          1.000000000000000E+00
(PID.TID 0000.0001) // CINT =          2.962962962962963E-02
(PID.TID 0000.0001) // SYMBOLS (CMIN->CMAX): -abcdefghijklmnopqrstuvwxyz+
(PID.TID 0000.0001) //                  0.0: .
(PID.TID 0000.0001) // RANGE I (Lo:Hi:Step):(  -2: 195:   1)
(PID.TID 0000.0001) // RANGE J (Lo:Hi:Step):(  35:  -2:  -1)
(PID.TID 0000.0001) // RANGE K (Lo:Hi:Step):(   1:   1:   1)
(PID.TID 0000.0001) // =======================================================
(PID.TID 0000.0001) K =   1
(PID.TID 0000.0001) //                I=7       I=17      I=27      I=31      I=41      I=51      I=61      I=65      I=75      I=85      I=95      I=99      I=109     I=119     I=129     I=133     I=143     I=153     I=163     I=167     I=177     I=187
(PID.TID 0000.0001) // |--J--|**0123456|890123456|890123456|890123450|234567890|234567890|234567890|234567234|678901234|678901234|678901234|678945678|012345678|012345678|012345678|016789012|456789012|456789012|456789012|890123456|890123456|890123456|89012345
(PID.TID 0000.0001) //     35 ...++++++++++++++vppojigeefrwb-...............wutrrhhgg-..........laad++h......++++++++++++iaajlkd.......g++++++.....+++++++++++++++++++++++++++++++++.....+++++++++++++++++tgghpuy+++++++++.....+++++++++++++++++++++++++++++++++..
(PID.TID 0000.0001) //     34 ...+++++++++++++++xsib..d..v++...............atssuslfa-...........j..k++p......+++++++++++uggknojd.......g++++++.....+++++++++++++++++++++++++++++++++.....+++++++++++++++++hff--ccco+++++++.....+++++++++++++++++++++++++++++++++..
(PID.TID 0000.0001) //     33 ...+++++++++++++++wd...-bbgl.................iootpoggc............c--g++vj.....++++++++++xhggknlid.......-++++++.....+++++++++++++++++++++++++++++++++.....+++++++++++++++++uogdd--..+++++++.....+++++++++++++++++++++++++++++++++..
(PID.TID 0000.0001) //     32 ++++++++++++++++++f..c--..--....fih...fih.....--bjf...............mxffhjhh..++++++++++++zlffkkjiig........+++++++++++++++++++++++++++++++++++++++++++++++++++++++++++++++++yrmfcbb-..o++++++++++++++++++++++++++++++++++++++++++++++
(PID.TID 0000.0001) //     31 ++++++++++++++++u...mttaa..-..-ccjm-..cjm-.......g...............buuvlleehw++++++++++++wvkggijjiigb......m+++++++++++++++++++++++++++++++++++++++++++++++++++++++++++++++++zsonh---cbbdp++++++++++++++++++++++++++++++++++++++++++++
(PID.TID 0000.0001) //     30 +++++++++++++++++c--+++pp+++++g--bhr..-bhr.......................oqxzzcch++++++++++++++uuiffipnjjhd-....d++++++++++++++++++++++++++++++++++++++++++++++++++++++++++++++++wssoljjibbh-..-++++++++++++++++++++++++++++++++++++++++++++
(PID.TID 0000.0001) //     29 +++++++++++++++++ff-..bx++++++----fkt.--fkt......................mwx++zz++++++++++++++sskccdiqsoojfc....d+++++++++++++++++++++++++++++++++++++++++++++++++++++++++++++++xollumiieddggffhp+++++p+++++++++++++++++++++++++++++++++++++
(PID.TID 0000.0001) //     28 ++++++++++++++++....-ihhlrrtth..-aafki-aafki.....................hhio++++++++++++++++++qigffjtzuoigd....f+++++++++++++++++++++++++++++++++++++++++++++++++++++++++++++++wllnvlkjjjolloqqqt++++qt++++++++++++++++++++++++++++++++++++
(PID.TID 0000.0001) //     27 +++++++++++++++l..-ffjeccjttphg....cdl...cdlc......em...........ai--q+++++++++++++++++++tiijnv+ypihdb...o++++++++++++++++++++++++++++++++++++++++++++++++++++++++++++++zhbbmvunigglsvwwvvw++++vw++++++++++++++++++++++++++++++++++++
(PID.TID 0000.0001) //     26 ++++++++++++++uiggjicccdeejiijhf----ah----ahvfflfffiiji.........bcaab+++++++++++++++++++++oojj+wpkjfd...p++++++++++++++++++++++++++++++++++++++++++++++++++++++++++++++m-..kzwliijiiqsvxxuu+++xuu+++++++++++++++++++++++++++++++++++
(PID.TID 0000.0001) //     25 +++++++++++++yonllnf....abb--gidd..-akd..-aktddf++wffhhhj--.....ii...++++++++++++++++++++++ggronnkji-...r+++++++++++++++++++++++++++++++++++++++++++++++s++++++++++++++h...ayxooi.....iiloo+++loo+++++++++++++++++++++++++++++++++++
(PID.TID 0000.0001) //     24 +++++++++++++yokkllh---a...bbgi--...ah-...ahott+++uiggghipd....jwy+++++++++++++++++++++ziis..koorlhh....++++++++++++++++++++++++++++++++++++++++++++++++suw++++++++++++bbjktvuqc........amqy++amqy++++++++++++++++++++++++++++++++++
(PID.TID 0000.0001) //     23 +++++++++++++yslllkff..-ii--aghd....-b....-bcu+++++iffdd++q----ht++..m+++++++++++++++++x...shaaqqqlj....e+++++++++++++++++++++++++++++++++++++++++++++++kuvz++++++++bbv...mmvrm...........ddo+..ddo+++++++++++++g...ew++++++++++++++
(PID.TID 0000.0001) //     22 +++++++++++++ysonlliigghki---ad-.....f.....f+++++++lffk++++ogg--f++jj+++++++++++++++++++....sxeeurrld....jv+++++++++++++++++++++++++++++++++++++++++++++ciklx++++++++++....dvn....+++++a....-d....-ds++++++++++.........y+++++++++++
(PID.TID 0000.0001) //     21 +++++++++++++zojjjlmlhhilfb..cc....g++...g++++++++++aae++++ytllbb++lls++++++++++++++++++......ddtuuzd....dmr++++++++++++++++++++++++++++++++++++++++++++dfffhu+++++kk++z.........+++++++++i...++i....kk++bb++++..........+++++++++++
(PID.TID 0000.0001) //     20 ++++++++++++++geehkjjaaeeicbbgg......-.....-++++++++ccw+++++ttxxz+zxkkl+++++++++++++++uu........l++++..ghhww++++++++++++++++++++++++++++++++++++++++++++iiigggiv+++ww++roox....+++++++++++++a.++++a..q+++...r+g..........+++++++++++
(PID.TID 0000.0001) //     19 x+++++++++++++ziiioonn..--caadf....cem...cem+++++++++jj+++++oo++++jjpaa++++++uu+++++++ccz.......+++++ojjpv++++++++++++++++++++++++++++++++++++++++++++++pmkkkaacvyzxx++..+++++++++++++++++++++++++++++++++...gd.........-+++++++++++
(PID.TID 0000.0001) //     18 ow+++++++++++++++++++u--cdfdb.....-iq+..-iq++++++++++++++++--cj++--d++++++++c..++vuuv+++++-...w+++++++zss+++++++++++++++++++++++++++++++++++++++++++++++ujjlnjffry+++---l++++++++++++++++++++++++++++++++++b..g..........-++++++++++
(PID.TID 0000.0001) //     17 ls++++++++++++++++++++kffhkh-.....ow++..ow+++++++++++++++++p--wwj--dv+uu++++-..fwpokk+++++++vv+++++++ztkk+++++++++++++++++++++++++++++++++++++++++++++++nkjjpqssuz+zx...+++++++++++++++++++++++++++++++++++a..............++++++++++
(PID.TID 0000.0001) //     16 uwyy++++++++++++++++++qffgig......w+++..w+++++++++++++++++++--kzlll..lwqoonn-m..dsy++++++++++++++++++yccnn+++++++++++++++++++++++++++++++++uu+++++++++++jiiilllqxz++u..q+++++++++++++++++++++++++++++++++++c..............++++++++++
(PID.TID 0000.0001) //     15 oorrhht++++++++++++++++jeefe......++++..+++++++++++++++++++++bbw+xxffi+zn....+c..ioz...iz+whh++++++++ucc--++++++++++++++++++++++++++++++++++++++++jjjt++oljiijkluy++s--++++++++++++++++++++++++++++++++++++v..............++++++++++
(PID.TID 0000.0001) //     14 llmmffgh+++++++++++++++n----.....-++++.-++++++++++++++++++++++ooppw++++++++.btd..bjurcc--e+++++++++zzui--k++++++++++++++++++++++++++++++++++++++++++cch+hggddddgilue..h+++++++++++++++++++++++++++++++++++++....i.........++++++++++
(PID.TID 0000.0001) //     13 ijffffhm+++++++++++++++g.........f++++.f++++++++++++++++++++++++++mmssy+++++xt--..iuyywqll+++++pp+yyvtg----c++++++++++++++++++++++++++++++++++++++++++++db......-.....++++++++++++++++++++++++++++++++++++++x...mv.......d++++++++++
(PID.TID 0000.0001) //     12 ihcc--p++++++++++++++++.........-hr+++-hr+++++++++++++++++++++++++++++++xxzzpaabbdgtvwtqnn+mggxxllzugd---g--h+++++h+++++++++++++++++++++++++vv++++++++++-.............++++++++++++++++++++++++++++++++++++++++++++.......+++++++++++
(PID.TID 0000.0001) //     11 e--bccu++++++++++++++++.........-dr+..-dr+..+++++++++++++++++++++++++rrsqqzw+i..bderrtttuvyvvzvrrup--....pxoo+++++o+++++++++++++++++++++++++++++++++++++............++++++++++++++++++++++++++++++++++++++++++++++......w+++++++++++
(PID.TID 0000.0001) //     10 b----dy++++++++++++++++.........nx+...nx+...++++++++++++++++++++++++whhinppv+..-..frrrrttttrrxtniijc....-zz+++++++++++++++++++++++++++++rr++++++++++++++.........-x+++++++++++++++++++++++++++++++++++++++++++++++....-j++++++++++++
(PID.TID 0000.0001) //      9 gc---c+++++++++++++++++i.......-y++...y++...+++++++++++++++++++++zyuqljjklnn+wjjlrrsrrsttsddexq--deiomddd+++++++++++++++++++++++++++++++zz++++++++++++++.......cihh+++++++++++++++++++++++++++++++++++++++++++++++++++++++++++++++++
(PID.TID 0000.0001) //      8 id...o++++++++++++++++++......-sx++..ux++..u+++++++++++++++++++++neehjigggmo+---txtsssutsggrwwtfeefiif-..nnn+++++++++++++++++++++++++++xx+++++++++++++++d.......v+++++++++++++++++++++++++++++++++++++++++++++++++++++++++++++++++++
(PID.TID 0000.0001) //      7 --bo++++++++++++++++++++.......y+++cc++++cc++++++++++++++++++++++mgffhfffgot+....wvttrrsrllwwuthhhhdb-....fjpu++++pu++++++++++++++++++++++++++nhaabbbcc++m..-gg+++++++++++++++++++++++++++++++++++++++++++++++++++++++++++++++++++++
(PID.TID 0000.0001) //      6 ..d+++++++++++++++++++++f-.....++++++++++++++++++++++++++++++++++mhgghfffiuv+-...bbbttvneerwwwuhhhd...-d--aahhv+++hhv+++++++++++++++++++kk++xrjjlmkccly+++++++++++++++++++++++++++++++++++++++++++++++++++++++++++++++++++++++++++++
(PID.TID 0000.0001) //      5 --p+++++++++++++++++++++s.....+++++++++++++++++++++++++++++++++++oiijkmmmqvv-g......wzuliisuvvslkg-...-bhhbb+jjl+++jjl+++++++++++++++++..d++mlhhnrrujj++++++++++++++++++++++++++++++++++++++++++++++++++++++++++++++++++++++++++++++
(PID.TID 0000.0001) //      4 p++++++++++++++++++++++++feee++++++++++++++++++++++++++++++++++++okkntttttnn--c.....x+tmmpnnsp--......--ecce++eel+++eel+++++++++++++++...+tfddnprttwuu++++++++++++++++++++++++++++++++++++++++++++++++++++++++++++++++++++++++++++++
(PID.TID 0000.0001) //      3 +++++++++++++++++++++++++++++++++++++++++++++++++++++++++++++++++++++++zurmm-bi.....wutrrhhgg-..........laad++h..+++h..+++++++++++++++...zwvtpptvvnnpx++++++++++++++++++++++++++++++++++++++++++++++++++++++++++++++++++++++++++++++
(PID.TID 0000.0001) //      2 +++++++++++++++++++++++++++++++++++++++++++++++++++++++++++++++++++++++++qppfhm....atssuslfa-...........j..k++p..+++p..++++++++++++++n..+++xnnouynmmpy+++++++++++++++++++++++++++++++++++++++++++++++++++++++++++++++++++++++++++++z
(PID.TID 0000.0001) //      1 +++++++++++++++++++++++++++++++++++++++++++++++++++++++++++++++++++++++++zyxkth....iootpoggc............c--g++vjjw++vjjw+++++++++++++p..+zzpommoutrqqz+++++++++++++++++++++++++++++++++++++++++++++++++++++++++++++hh+++++ccy++++++u
(PID.TID 0000.0001) //      0 ...+++++++++++++++++++++++++++++++++.....++++++++++++++++++++++++++++++++z..........--bjf...............mxffhjhh.....hhh+++++++++++++onn+xqqlgggiqtu++.....+++++++++++++++++++++++++++++++++.....+++++++++++++++++tcc+++++zljjuxyz..
(PID.TID 0000.0001) //     -1 ...+++++++++++++++++++++++++++++++++.....++++++++++++++++++++++++++++++++y.....-.......g...............buuvlleeh.....jeeh++++++++++++qqz++snkgfffmtz++.....+++++++++++++++++++++++++++++++++.....+++++++++++++++++jj++++++bbcvpppq..
(PID.TID 0000.0001) //     -2 ...+++++++++++++++++++++++++++++++++.....++++++++++++++++++++++++++++++++x.....r.......................oqxzzcch+.....+vccz++++++++++uuw+++viiifffmt+++.....+++++++++++++++++++++++++++++++++.....+++++++++++++++++jj++++++bbkunmmr..
(PID.TID 0000.0001) // =======================================================
(PID.TID 0000.0001) // END OF FIELD                                          =
(PID.TID 0000.0001) // =======================================================
(PID.TID 0000.0001) 
(PID.TID 0000.0001) // =======================================================
(PID.TID 0000.0001) // Field hFacS at iteration          1
(PID.TID 0000.0001) // CMIN =          2.000000000000000E-01
(PID.TID 0000.0001) // CMAX =          1.000000000000000E+00
(PID.TID 0000.0001) // CINT =          2.962962962962963E-02
(PID.TID 0000.0001) // SYMBOLS (CMIN->CMAX): -abcdefghijklmnopqrstuvwxyz+
(PID.TID 0000.0001) //                  0.0: .
(PID.TID 0000.0001) // RANGE I (Lo:Hi:Step):(  -2: 195:   1)
(PID.TID 0000.0001) // RANGE J (Lo:Hi:Step):(  35:  -2:  -1)
(PID.TID 0000.0001) // RANGE K (Lo:Hi:Step):(   1:   1:   1)
(PID.TID 0000.0001) // =======================================================
(PID.TID 0000.0001) K =   1
(PID.TID 0000.0001) //                I=7       I=17      I=27      I=31      I=41      I=51      I=61      I=65      I=75      I=85      I=95      I=99      I=109     I=119     I=129     I=133     I=143     I=153     I=163     I=167     I=177     I=187
(PID.TID 0000.0001) // |--J--|**0123456|890123456|890123456|890123450|234567890|234567890|234567890|234567234|678901234|678901234|678901234|678945678|012345678|012345678|012345678|016789012|456789012|456789012|456789012|890123456|890123456|890123456|89012345
(PID.TID 0000.0001) //     35 ...++++++++++++++vpsib.dd.rxwb...............xtstrshfa-..........jl.d+++h......+++++++++++ugajqljd......g++++++......++++++++++++++++++++++++++++++++......+++++++++++++++++hff-cdco+++++++......++++++++++++++++++++++++++++++++...
(PID.TID 0000.0001) //     34 ...+++++++++++++++wd...bb.lt................a+osupogfa...........cl.g+++p......++++++++++xhgknplid......-++++++......++++++++++++++++++++++++++++++++......+++++++++++++++++hff-c--.+++++++......++++++++++++++++++++++++++++++++...
(PID.TID 0000.0001) //     33 ++++++++++++++++++f...-b.-j-.................t-bsjf..............cp-fh+jhj..++++++++++++zlfgkljiid.......++++++++++++++++++++++++++++++++++++++++++++++++++++++++++++++++++yrmfcb--.o+++++++++++++++++++++++++++++++++++++++++++++++
(PID.TID 0000.0001) //     32 ++++++++++++++++u...cd-a..j-...cimh...imh.......jg...............muyfhvehj..+++++++++++wvkfikjjijg.......++++++++++++++++++++++++++++++++++++++++++++++++++++++++++++++++++yrmfc---.bdp+++++++++++++++++++++++++++++++++++++++++++++
(PID.TID 0000.0001) //     31 ++++++++++++++++u..m+ttai.w-.-g-bht-..bht-......................bqu+vlcehw+++++++++++++uuifimjkilgb.....m++++++++++++++++++++++++++++++++++++++++++++++++++++++++++++++++wswoljh--cd-.-+++++++++++++++++++++++++++++++++++++++++++++
(PID.TID 0000.0001) //     30 +++++++++++++++++c--.bxp++++++---fkr..-fkr......................mqx+z+ch++++++++++++++sskcdipunjohd-...d++++++++++++++++++++++++++++++++++++++++++++++++++++++++++++++++xoluoliiebgi-.-p++++++++++++++++++++++++++++++++++++++++++++
(PID.TID 0000.0001) //     29 ++++++++++++++++...-.bhlwrttuh.--afkx.-afkx.....................mhio++z+++++++++++++++sqicdiqxsooifc...d++++++++++++++++++++++++++++++++++++++++++++++++++++++++++++++++wlluuliiedgigfhpt+++++t+++++++++++++++++++++++++++++++++++++
(PID.TID 0000.0001) //     28 +++++++++++++++l...-iiecjrttph....cdli..cdli.......k............kh-o+++++++++++++++++++qigfjt+zuoigd...f+++++++++++++++++++++++++++++++++++++++++++++++++++++++++++++++zhbmvxlkiglploqqqt+++++t+++++++++++++++++++++++++++++++++++++
(PID.TID 0000.0001) //     27 ++++++++++++++ui.-ffccdcemjijhg...-ahw..-ahwc.....eik..........acf-b++++++++++++++++++++tijnj++wpihdb..o+++++++++++++++++++++++++++++++++++++++++++++++++++++++++++++++m-.kvyuligliqsvwvwu++++wu++++++++++++++++++++++++++++++++++++
(PID.TID 0000.0001) //     26 +++++++++++++yoigjlf...adbh-gohd-.-aht-.-ahtvdflffsfhhh........bcf..++++++++++++++++++++++ogjxonpkjf-..p+++++++++++++++++++++++++++++++++++++++++++++++++++++++++++++++h..ayywlii....jilvo++++vo++++++++++++++++++++++++++++++++++++
(PID.TID 0000.0001) //     25 +++++++++++++yokllof...a..f-gmi-+..aho+..ahotdf+++ufgghiw--....jiq..+++++++++++++++++++zis+.kxonrkhi...r++++++++++++++++++++++++++++++++++++++++++++++++uw+++++++++++++b..avxuoc.......amoy+++moy+++++++++++++++++++++++++++++++++++
(PID.TID 0000.0001) //     24 +++++++++++++yokllkf-.-a..-aghi-...-bc...-bctt++++uifgdi+pd...hty++.m++++++++++++++++++x..v.haoqulhj...e++++++++++++++++++++++++++++++++++++++++++++++++uvz+++++++++b+v..kmvwrm..........fdo++.fdo++++++++++++++g..ew+++++++++++++++
(PID.TID 0000.0001) //     23 +++++++++++++yslllkfh.-iii--adi-.j..bc.j..bcu++++++ifkd+++q-a--f+++.m++++++++++++++++++x...shaeqyqlj....jv++++++++++++++++++++++++++++++++++++++++++++++iklx++++++++b+v...dvwn.....s.......-ds...-ds+++++++++++........y++++++++++++
(PID.TID 0000.0001) //     22 +++++++++++++yojjlmijghkmf-.ach.....f+....f++++++++lae+++++ogj-b+++js+++++++++++++++++++.....jdtxrsld...dmr+++++++++++++++++++++++++++++++++++++++++++++fgfhu++++++k+++.....a....++++++a............qk+++b+++++.........++++++++++++
(PID.TID 0000.0001) //     21 +++++++++++++zgehkmjjafejfb.ccg.....-+....-+++++++++ae+++++ytlqb++zlkl++++++++++++++++u+.......lxuz+d...dmr+++++++++++++++++++++++++++++++++++++++++++++fgfggiv++++k+++r........++++++++++i...++i...qk+++..r++g.........++++++++++++
(PID.TID 0000.0001) //     20 ++++++++++++++gehkojja.--gcadgf.....-+....-+++++++++cj++++++oxxz++jxka+++++++u++++++++c+.......l+++++.gjhxw+++++++++++++++++++++++++++++++++++++++++++++iikggacvyz+w+++.o+x...++++++++++++++a.++++a.q++++...g+d.........++++++++++++
(PID.TID 0000.0001) //     19 w+++++++++++++ziiooono.--gcab.....cem+..cem++++++++++j+++++-cj+++-d+pa++++++c.+++vuv++c+z....-.++++++ojpv+++++++++++++++++++++++++++++++++++++++++++++++pjkkkacryz+x+--.++++++++++++++++++++++++++++++++++...vd.........-+++++++++++
(PID.TID 0000.0001) //     18 s++++++++++++++++++++u-cdgfd-....-iq++.-iq+++++++++++++++++--j+wj-dv++u+++++-.fwxpok++++++-..w+++++++ztk++++++++++++++++++++++++++++++++++++++++++++++++njjnnjfry++zx..l+++++++++++++++++++++++++++++++++++a.............+++++++++++
(PID.TID 0000.0001) //     17 szy+++++++++++++++++++kfgkig.....ow+++.ow++++++++++++++++++p-kzwj-d.l+uqopn+-..dspok++++++++v++++++++yckn++++++++++++++++++++++++++++++++++u++++++++++++jiilolquz++zu..++++++++++++++++++++++++++++++++++++a.............+++++++++++
(PID.TID 0000.0001) //     16 osruht++++++++++++++++qfefge.....w++++.w++++++++++++++++++++-bw+ll+.i+wqn...+m..iozz..iz++wh+++++++++ucf-++++++++++++++++++++++++++++++++++u++++++jjt+++jiiijkluy+++s.q++++++++++++++++++++++++++++++++++++c.............+++++++++++
(PID.TID 0000.0001) //     15 lomofgh++++++++++++++++j----.....+++++.++++++++++++++++++++++boppw+fi++zn...+tc.bjyu..c-e+wh+++++++z+uc--+++++++++++++++++++++++++++++++++++++++++jjch++hggdddgiluve.-+++++++++++++++++++++++++++++++++++++v.............+++++++++++
(PID.TID 0000.0001) //     14 jnfgfgh++++++++++++++++g........-+++++-+++++++++++++++++++++++oppwmysy+++++.+t-..iuurcc-e++++++p++yyvtg-i-c+++++++++++++++++++++++++++++++++++++++++ch++db.....-a....h++++++++++++++++++++++++++++++++++++++...iz........+++++++++++
(PID.TID 0000.0001) //     13 jhcd-hm++++++++++++++++.........fr++++fr++++++++++++++++++++++++++mysy++xz+zpa--.gtvwwtql++mgx+pl+yugd--g--h++++++++++++++++++++++++++++++++v+++++++++++-............+++++++++++++++++++++++++++++++++++++++x..m+v......d+++++++++++
(PID.TID 0000.0001) //     12 i-bd-p+++++++++++++++++........-dr++.+dr++.++++++++++++++++++++++++++rvsqz+wpa.bdesrtvtqnyzmgxvrlup-a...gs-h++++++++++++++++++++++++++++++++v+++++++++++.............+++++++++++++++++++++++++++++++++++++++++++++......++++++++++++
(PID.TID 0000.0001) //     11 b-b-cu+++++++++++++++++........-dr+..+dr+..+++++++++++++++++++++++++whinqpxv+..b.errrrttutwrxxtnijp-....pzxo++++++++++++++++++++++++++++r+++++++++++++++...........+++++++++++++++++++++++++++++++++++++++++++++++.....w++++++++++++
(PID.TID 0000.0001) //     10 b---cy+++++++++++++++++........nx++..+x++..++++++++++++++++++++++zyuqhiklont+.-g.frsrrttusdexxq-deic...-+z++++++++++++++++++++++++++++++r+++++++++++++++........-h++++++++++++++++++++++++++++++++++++++++++++++++...-j+++++++++++++
(PID.TID 0000.0001) //      9 hc..c++++++++++++++++++i......-x+++..++++..++++++++++++++++++++++nehkjiggmnp+--lvrtsrsutsgdewwq-deimif-.nnn++++++++++++++++++++++++++++xz+++++++++++++++.......ijh++++++++++++++++++++++++++++++++++++++++++++++++++++++++++++++++++
(PID.TID 0000.0001) //      8 -b..o+++++++++++++++++++......sx+++.u++++.u++++++++++++++++++++++mefihffgmop+...+wtssrstrgrwwutfefhdb-...fjpu+++++u++++++++++++++++++++x++++++nhadbbzc++d......v++++++++++++++++++++++++++++++++++++++++++++++++++++++++++++++++++++
(PID.TID 0000.0001) //      7 .bo+++++++++++++++++++++......y++++c+++++c+++++++++++++++++++++++mgfihffgout+...+bbttrsnelwwwuthhhd..-.-.faphv++++hv++++++++++++++++++++k+++xrjhadbblc+++m.-gg++++++++++++++++++++++++++++++++++++++++++++++++++++++++++++++++++++++
(PID.TID 0000.0001) //      6 .d++++++++++++++++++++++f.....+++++++++++++++++++++++++++++++++++mhgihffiuyvg-...-.utwuleruvwvshig-..-bi-ia+hjl+++hjl++++++++++++++++++.d+++mlhlrmkcjy++++++++++++++++++++++++++++++++++++++++++++++++++++++++++++++++++++++++++++++
(PID.TID 0000.0001) //      5 -p++++++++++++++++++++++s....++++++++++++++++++++++++++++++++++++oijknmmqtnv-c.....wzztliqnsup--..-..--jecb++jel+++jel++++++++++++++++..d+tfdlhntruvj+++++++++++++++++++++++++++++++++++++++++++++++++++++++++++++++++++++++++++++++
(PID.TID 0000.0001) //      4 +++++++++++++++++++++++++fee+++++++++++++++++++++++++++++++++++++okntutttrmn-cf....xwutmphhgj-.......-.nead+++e.++++e.++++++++++++++++..+ztfdnprttnpu+++++++++++++++++++++++++++++++++++++++++++++++++++++++++++++++++++++++++++++++
(PID.TID 0000.0001) //      3 +++++++++++++++++++++++++++++++++++++++++++++++++++++++++++++++++++++++zuqmnbji....xtstrshfa-..........jl.d+++h.++++h.+++++++++++++++n..+zwvnotvvnmpx++++++++++++++++++++++++++++++++++++++++++++++++++++++++++++++++++++++++++++++z
(PID.TID 0000.0001) //      2 +++++++++++++++++++++++++++++++++++++++++++++++++++++++++++++++++++++++++qpphmh...a+osupogfa...........cl.g+++p.w+++p.w++++++++++++++n.++zzpnmouvnmpy++++++++++++++++++++++++++++++++++++++++++++++++++++++++++++++h++++++cy+++++++u
(PID.TID 0000.0001) //      1 +++++++++++++++++++++++++++++++++++++++++++++++++++++++++++++++++++++++++zyxr-.....t-bsjf..............cp-fh+jhhh++jhhh++++++++++++++o.++xqplggiqtrqz+++++++++++++++++++++++++++++++++++++++++++++++++++++++++++++tc++++++cljuxyzzqr
(PID.TID 0000.0001) //      0 ...++++++++++++++++++++++++++++++++......++++++++++++++++++++++++++++++++.............jg...............muyfhveh......heh+++++++++++++on++xqnkgffmtu++......++++++++++++++++++++++++++++++++......+++++++++++++++++jc++++++bcjuppq...
(PID.TID 0000.0001) //     -1 ...++++++++++++++++++++++++++++++++......++++++++++++++++++++++++++++++++......-......................bqu+vlceh......jecz+++++++++++uqz+++sijgffmtz++......++++++++++++++++++++++++++++++++......+++++++++++++++++j+++++++bcuwnmq...
(PID.TID 0000.0001) //     -2 ...++++++++++++++++++++++++++++++++......++++++++++++++++++++++++++++++++......r......................mqx+z+ch+......hlcz++++++++la+uw++y+rhjiffmt+++......++++++++++++++++++++++++++++++++......+++++++++++++++++j+++++++bkrtnmr...
(PID.TID 0000.0001) // =======================================================
(PID.TID 0000.0001) // END OF FIELD                                          =
(PID.TID 0000.0001) // =======================================================
(PID.TID 0000.0001) 
(PID.TID 0000.0001)  PACKAGES_BOOT: opening data.pkg
(PID.TID 0000.0001)  OPEN_COPY_DATA_FILE: opening file data.pkg
(PID.TID 0000.0001) // =======================================================
(PID.TID 0000.0001) // Parameter file "data.pkg"
(PID.TID 0000.0001) // =======================================================
(PID.TID 0000.0001) ># Packages
(PID.TID 0000.0001) > &PACKAGES
(PID.TID 0000.0001) > useAIM=.TRUE.
(PID.TID 0000.0001) > useSHAP_FILT=.TRUE.
(PID.TID 0000.0001) >#useAIM=.FALSE.
(PID.TID 0000.0001) > &
(PID.TID 0000.0001) 
(PID.TID 0000.0001)  PACKAGES_BOOT: finished reading data.pkg
(PID.TID 0000.0001)  SHAP_FILT_READPARMS: opening data.shap
(PID.TID 0000.0001)  OPEN_COPY_DATA_FILE: opening file data.shap
(PID.TID 0000.0001) // =======================================================
(PID.TID 0000.0001) // Parameter file "data.shap"
(PID.TID 0000.0001) // =======================================================
(PID.TID 0000.0001) ># Shapiro Filter parameters
(PID.TID 0000.0001) > &SHAP_PARM01
(PID.TID 0000.0001) > shap_filt_uvStar=.FALSE.,
(PID.TID 0000.0001) > shap_filt_TrStagg=.TRUE.,
(PID.TID 0000.0001) > Shap_funct=2,
(PID.TID 0000.0001) > nShapT=0,
(PID.TID 0000.0001) > nShapUV=4,
(PID.TID 0000.0001) > nShapTrPhys=4,
(PID.TID 0000.0001) > nShapUVPhys=4,
(PID.TID 0000.0001) >#Shap_TrLength=115000.,
(PID.TID 0000.0001) >#Shap_uvLength=140000.,
(PID.TID 0000.0001) >#Shap_Trtau=3600.,
(PID.TID 0000.0001) >#Shap_uvtau=3600.,
(PID.TID 0000.0001) > &
(PID.TID 0000.0001) 
(PID.TID 0000.0001)  SHAP_FILT_READPARMS: finished reading data.shap
(PID.TID 0000.0001) Shap_funct =   /* select Shapiro filter function */
(PID.TID 0000.0001)                       2
(PID.TID 0000.0001)     ;
(PID.TID 0000.0001) nShapTr =   /* power of Shapiro filter for Tracers */
(PID.TID 0000.0001)                       0
(PID.TID 0000.0001)     ;
(PID.TID 0000.0001) nShapUV =   /* power of Shapiro filter for momentum */
(PID.TID 0000.0001)                       4
(PID.TID 0000.0001)     ;
(PID.TID 0000.0001) nShapTrPhys =   /* power of physical-space filter (Tracer) */
(PID.TID 0000.0001)                       4
(PID.TID 0000.0001)     ;
(PID.TID 0000.0001) nShapUVPhys =   /* power of physical-space filter (Momentum) */
(PID.TID 0000.0001)                       4
(PID.TID 0000.0001)     ;
(PID.TID 0000.0001) Shap_Trtau =   /* time scale of Shapiro filter (Tracer) */
(PID.TID 0000.0001)                 4.500000000000000E+02
(PID.TID 0000.0001)     ;
(PID.TID 0000.0001) Shap_TrLength =   /* Length scale of Shapiro filter (Tracer) */
(PID.TID 0000.0001)                 0.000000000000000E+00
(PID.TID 0000.0001)     ;
(PID.TID 0000.0001) Shap_uvtau =   /* time scale of Shapiro filter (Momentum) */
(PID.TID 0000.0001)                 4.500000000000000E+02
(PID.TID 0000.0001)     ;
(PID.TID 0000.0001) Shap_uvLength =   /* Length scale of Shapiro filter (Momentum) */
(PID.TID 0000.0001)                 0.000000000000000E+00
(PID.TID 0000.0001)     ;
(PID.TID 0000.0001) Shap_noSlip =  /* No-slip parameter (0=Free-slip ; 1=No-slip)*/
(PID.TID 0000.0001)                 0.000000000000000E+00
(PID.TID 0000.0001)     ;
- INPHYS: k,SIG, SIGH,   SIGL,   WVI(1),  WVI(2):
  1   0.0750   0.1500  -2.5903   0.8306   0.5757
  2   0.2500   0.3500  -1.3863   1.4427   0.4854
  3   0.5000   0.6500  -0.6931   2.2818   0.5987
  4   0.7750   0.9000  -0.2549   4.9116   0.7344
  5   0.9500   1.0000  -0.0513   0.0000   0.0377
- INPHYS: end setup WVI.
(PID.TID 0000.0001)  AIM_READ_PHYSPARMS: opening data.aimphys
(PID.TID 0000.0001)  OPEN_COPY_DATA_FILE: opening file data.aimphys
(PID.TID 0000.0001) // =======================================================
(PID.TID 0000.0001) // Parameter file "data.aimphys"
(PID.TID 0000.0001) // =======================================================
(PID.TID 0000.0001) ># AIM physics package parameters:
(PID.TID 0000.0001) >
(PID.TID 0000.0001) >C--   AIM interface parameter (namelist AIM_PARAMS):
(PID.TID 0000.0001) >#     aim_useFMsurfBC :: select surface B.C. from Franco Molteni
(PID.TID 0000.0001) >#     aim_useMMsurfFc :: select Monthly Mean surface forcing (e.g., NCEP)
(PID.TID 0000.0001) >#     aim_surfPotTemp :: surf.Temp input file is in Pot.Temp (aim_useMMsurfFc)
(PID.TID 0000.0001) >#     aim_MMsufx   :: sufix for all Monthly Mean surface forcing files
(PID.TID 0000.0001) >#     aim_MMsufxLength :: Length of sufix (Monthly Mean surf. forc. files)
(PID.TID 0000.0001) >#     aim_LandFile :: file name for Land fraction       (F.M. surfBC)
(PID.TID 0000.0001) >#     aim_albFile  :: file name for Albedo input file   (F.M. surfBC)
(PID.TID 0000.0001) >#     aim_vegFile  :: file name for vegetation fraction (F.M. surfBC)
(PID.TID 0000.0001) >#     aim_sstFile  :: file name for  Sea.Surf.Temp      (F.M. surfBC)
(PID.TID 0000.0001) >#     aim_lstFile  :: file name for Land.Surf.Temp      (F.M. surfBC)
(PID.TID 0000.0001) >#     aim_oiceFile :: file name for Sea Ice fraction    (F.M. surfBC)
(PID.TID 0000.0001) >#     aim_snowFile :: file name for Snow depth          (F.M. surfBC)
(PID.TID 0000.0001) >#     aim_swcFile  :: file name for Soil Water content  (F.M. surfBC)
(PID.TID 0000.0001) >#     aim_diagFreq :: Frequency^-1 for diagnostic output (s)
(PID.TID 0000.0001) >#     aim_tendFreq :: Frequency^-1 for tendencies output (s)
(PID.TID 0000.0001) > &AIM_PARAMS
(PID.TID 0000.0001) >   aim_useFMsurfBC=.FALSE.,
(PID.TID 0000.0001) >   aim_useMMsurfFc=.TRUE.,
(PID.TID 0000.0001) >#  aim_surfPotTemp=.TRUE.,
(PID.TID 0000.0001) >   aim_MMsufx = '.cs.bin',
(PID.TID 0000.0001) >   aim_MMsufxLength = 7,
(PID.TID 0000.0001) > &
(PID.TID 0000.0001) >
(PID.TID 0000.0001) >#--   Physical constants
(PID.TID 0000.0001) >#      P0   = reference pressure
(PID.TID 0000.0001) >#      GG   = gravity accel.
(PID.TID 0000.0001) >#      RD   = gas constant for dry air
(PID.TID 0000.0001) >#      CP   = specific heat at constant pressure
(PID.TID 0000.0001) >#      ALHC = latent heat of condensation
(PID.TID 0000.0001) >#      SBC  = Stefan-Boltzmann constant
(PID.TID 0000.0001) >
(PID.TID 0000.0001) >#--   Constants for forcing fields (namelist AIM_PAR_FOR):
(PID.TID 0000.0001) >#      SOLC   = Solar constant (area averaged) in W/m^2
(PID.TID 0000.0001) >#      ALBSEA = Albedo over sea
(PID.TID 0000.0001) >#      ALBICE = Albedo over sea ice (for ice fraction = 1)
(PID.TID 0000.0001) >#      ALBSN  = Albedo over snow (for snow depth > SDALB)
(PID.TID 0000.0001) >#      SDALB  = Snow depth (mm water) corresponding to maximum albedo
(PID.TID 0000.0001) >#      SWCAP  = Soil wetness at field capacity (volume fraction)
(PID.TID 0000.0001) >#      SWWIL  = Soil wetness at wilting point  (volume fraction)
(PID.TID 0000.0001) > &AIM_PAR_FOR
(PID.TID 0000.0001) > &
(PID.TID 0000.0001) >
(PID.TID 0000.0001) >#--   Constants for surface fluxes (namelist AIM_PAR_SFL):
(PID.TID 0000.0001) >#      FWIND0 = ratio of near-sfc wind to lowest-level wind
(PID.TID 0000.0001) >#      FTEMP0 = weight for near-sfc temperature extrapolation (0-1) :
(PID.TID 0000.0001) >#               1 : linear extrapolation from two lowest levels
(PID.TID 0000.0001) >#               0 : constant potential temperature ( = lowest level)
(PID.TID 0000.0001) >#      FHUM0  = weight for near-sfc specific humidity extrapolation (0-1) :
(PID.TID 0000.0001) >#               1 : extrap. with constant relative hum. ( = lowest level)
(PID.TID 0000.0001) >#               0 : constant specific hum. ( = lowest level)
(PID.TID 0000.0001) >#      CDL    = drag coefficient for momentum over land
(PID.TID 0000.0001) >#      CDS    = drag coefficient for momentum over sea
(PID.TID 0000.0001) >#      CHL    = heat exchange coefficient over land
(PID.TID 0000.0001) >#      CHS    = heat exchange coefficient over sea
(PID.TID 0000.0001) >#      VGUST  = wind speed for sub-grid-scale gusts
(PID.TID 0000.0001) >#      CTDAY  = daily-cycle correction (dTskin/dSSRad)
(PID.TID 0000.0001) >#      DTHETA = Potential temp. gradient for stability correction
(PID.TID 0000.0001) >#      FSTAB  = Amplitude of stability correction (fraction)
(PID.TID 0000.0001) >#      HDRAG  = Height scale for orographic correction
(PID.TID 0000.0001) >#      FHDRAG = Amplitude of orographic correction (fraction)
(PID.TID 0000.0001) > &AIM_PAR_SFL
(PID.TID 0000.0001) > &
(PID.TID 0000.0001) >
(PID.TID 0000.0001) >#--   Convection constants (namelist AIM_PAR_CNV):
(PID.TID 0000.0001) >#      PSMIN  = minimum (norm.) sfc. pressure for the occurrence of convection
(PID.TID 0000.0001) >#      TRCNV  = time of relaxation (in hours) towards reference state
(PID.TID 0000.0001) >#      QBL    = specific hum. threshold in the boundary layer
(PID.TID 0000.0001) >#      RHBL   = relative hum. threshold in the boundary layer
(PID.TID 0000.0001) >#      RHIL   = rel. hum. threshold in intermed. layers for secondary mass flux
(PID.TID 0000.0001) >#      ENTMAX = max. entrainment as a fraction of cloud-base mass flux
(PID.TID 0000.0001) >#      SMF    = ratio between secondary and primary mass flux at cloud-base
(PID.TID 0000.0001) > &AIM_PAR_CNV
(PID.TID 0000.0001) > &
(PID.TID 0000.0001) >
(PID.TID 0000.0001) >#--   Constants for large-scale condendation (namelist AIM_PAR_LSC):
(PID.TID 0000.0001) >#      TRLSC  = Relaxation time (in hours) for specific humidity
(PID.TID 0000.0001) >#      RHLSC  = Maximum relative humidity threshold (at sigma=1)
(PID.TID 0000.0001) >#      DRHLSC = Vertical range of relative humidity threshold
(PID.TID 0000.0001) >#      QSMAX  = used to define the maximum latent heat release
(PID.TID 0000.0001) > &AIM_PAR_LSC
(PID.TID 0000.0001) > &
(PID.TID 0000.0001) >
(PID.TID 0000.0001) >#--   Radiation constants (namelist AIM_PAR_RAD):
(PID.TID 0000.0001) >#      RHCL1  = relative hum. corresponding to cloud cover = 0
(PID.TID 0000.0001) >#      RHCL2  = relative hum. corresponding to cloud cover = 1
(PID.TID 0000.0001) >#      QACL1  = specific hum. threshold for cloud cover in the upper troposphere
(PID.TID 0000.0001) >#      QACL2  = specific hum. threshold for cloud cover in the upper troposphere
(PID.TID 0000.0001) >#      ALBCL  = cloud albedo (for cloud cover = 1)
(PID.TID 0000.0001) >#      EPSSW  = fraction of incoming solar radiation absorbed by ozone
(PID.TID 0000.0001) >#      EPSLW  = fraction of surface LW radiation emitted directly to space
(PID.TID 0000.0001) >#      EMISFC = longwave surface emissivity
(PID.TID 0000.0001) >#--:            shortwave absorptivities (for dp = 10^5 Pa) :
(PID.TID 0000.0001) >#      ABSDRY = abs. of dry air      (visible band)
(PID.TID 0000.0001) >#      ABSAER = abs. of aerosols     (visible band)
(PID.TID 0000.0001) >#      ABSWV1 = abs. of water vapour (visible band, for dq = 1 g/kg)
(PID.TID 0000.0001) >#      ABSWV2 = abs. of water vapour (near IR band, for dq = 1 g/kg)
(PID.TID 0000.0001) >#      ABSCL1 = abs. of clouds       (visible band, constant term)
(PID.TID 0000.0001) >#      ABSCL2 = abs. of clouds       (visible band, for dw = 1 g/kg)
(PID.TID 0000.0001) >#--:            longwave absorptivities (per dp = 10^5 Pa) :
(PID.TID 0000.0001) >#      ABLWIN = abs. of air in "window" band
(PID.TID 0000.0001) >#      ABLCO2 = abs. of air in CO2 band
(PID.TID 0000.0001) >#      ABLWV1 = abs. of water vapour in H2O band 1 (weak),   for dq = 1 g/kg
(PID.TID 0000.0001) >#      ABLWV2 = abs. of water vapour in H2O band 2 (strong), for dq = 1 g/kg
(PID.TID 0000.0001) >#      ABLCL1 = abs. of clouds       in "window" band,       constant term
(PID.TID 0000.0001) >#      ABLCL2 = abs. of clouds       in "window" band,       for dw = 1 g/kg
(PID.TID 0000.0001) > &AIM_PAR_RAD
(PID.TID 0000.0001) > &
(PID.TID 0000.0001) >
(PID.TID 0000.0001) >#--   Constants for vertical dif. and sh. conv. (namelist AIM_PAR_VDI):
(PID.TID 0000.0001) >#      TRSHC  = relaxation time (in hours) for shallow convection
(PID.TID 0000.0001) >#      TRVDI  = relaxation time (in hours) for moisture diffusion
(PID.TID 0000.0001) >#      TRVDS  = relaxation time (in hours) for super-adiab. conditions
(PID.TID 0000.0001) >#      RHGRAD = maximum gradient of relative humidity (d_RH/d_sigma)
(PID.TID 0000.0001) >#      SEGRAD = minimum gradient of dry static energy (d_DSE/d_phi)
(PID.TID 0000.0001) > &AIM_PAR_VDI
(PID.TID 0000.0001) > &
(PID.TID 0000.0001) >
(PID.TID 0000.0001) 
(PID.TID 0000.0001)  AIM_READ_PHYSPARMS: finished reading data.aimphys
(PID.TID 0000.0001) 
(PID.TID 0000.0001) // ===================================
(PID.TID 0000.0001) // AIM physics parameters :
(PID.TID 0000.0001) // ===================================
(PID.TID 0000.0001) aim_useFMsurfBC =   /* F.Molteni surf. BC scheme on/off flag */
(PID.TID 0000.0001)                   F
(PID.TID 0000.0001)     ;
(PID.TID 0000.0001) aim_useMMsurfFc =   /* Monthly Mean surf. Forcing on/off flag */
(PID.TID 0000.0001)                   T
(PID.TID 0000.0001)     ;
(PID.TID 0000.0001) aim_surfPotTemp =   /* Surf Temp file in Pot.Temp on/off flag */
(PID.TID 0000.0001)                   F
(PID.TID 0000.0001)     ;
(PID.TID 0000.0001) aim_taveFreq =   /* Frequency^-1 for time-Aver. output (s) */
(PID.TID 0000.0001)                 2.592000000000000E+06
(PID.TID 0000.0001)     ;
(PID.TID 0000.0001) aim_diagFreq =   /* Frequency^-1 for diagnostic output (s) */
(PID.TID 0000.0001)                 2.592000000000000E+06
(PID.TID 0000.0001)     ;
(PID.TID 0000.0001) aim_tendFreq =   /* Frequency^-1 for tendencies output (s) */
(PID.TID 0000.0001)                 0.000000000000000E+00
(PID.TID 0000.0001)     ;
(PID.TID 0000.0001) AIM_FOR:   SOLC =   /* Solar constant (area averaged) in W/m2 */
(PID.TID 0000.0001)                 3.420000000000000E+02
(PID.TID 0000.0001)     ;
(PID.TID 0000.0001) AIM_FOR: ALBSEA =   /* Albedo over sea [0-1]      */
(PID.TID 0000.0001)                 7.000000000000001E-02
(PID.TID 0000.0001)     ;
(PID.TID 0000.0001) AIM_FOR: ALBICE =   /* Albedo over sea ice (for ice fraction =1) */
(PID.TID 0000.0001)                 6.000000000000000E-01
(PID.TID 0000.0001)     ;
(PID.TID 0000.0001) AIM_FOR:  ALBSN =   /* Albedo over snow (for snow depth > SDALB) */
(PID.TID 0000.0001)                 6.000000000000000E-01
(PID.TID 0000.0001)     ;
(PID.TID 0000.0001) AIM_FOR:  SDALB =   /* Snow depth (mm H2O) corresp. maximum albedo */
(PID.TID 0000.0001)                 6.000000000000000E+01
(PID.TID 0000.0001)     ;
(PID.TID 0000.0001) AIM_FOR:  SWCAP =   /* Soil wetness at field capacity (Vol.fract.) */
(PID.TID 0000.0001)                 3.000000000000000E-01
(PID.TID 0000.0001)     ;
(PID.TID 0000.0001) AIM_FOR:  SWWIL =   /* Soil wetness at wilting point  (Vol.fract.) */
(PID.TID 0000.0001)                 1.700000000000000E-01
(PID.TID 0000.0001)     ;
(PID.TID 0000.0001) AIM_SFL: FWIND0 =   /* ratio of near-sfc wind to lowest-level wind */
(PID.TID 0000.0001)                 6.000000000000000E-01
(PID.TID 0000.0001)     ;
(PID.TID 0000.0001) AIM_SFL: FTEMP0 =  /* weight for near-sfc temp. extrapolation (0-1)*/
(PID.TID 0000.0001)                 1.000000000000000E+00
(PID.TID 0000.0001)     ;
(PID.TID 0000.0001) AIM_SFL:  FHUM0 =  /* weight for near-sfc spec.humid. extrap. (0-1)*/
(PID.TID 0000.0001)                 1.000000000000000E+00
(PID.TID 0000.0001)     ;
(PID.TID 0000.0001) AIM_SFL:    CDL =   /* drag coefficient for momentum over land */
(PID.TID 0000.0001)                 1.800000000000000E-03
(PID.TID 0000.0001)     ;
(PID.TID 0000.0001) AIM_SFL:    CDS =   /* drag coefficient for momentum over sea  */
(PID.TID 0000.0001)                 8.000000000000000E-04
(PID.TID 0000.0001)     ;
(PID.TID 0000.0001) AIM_SFL:    CHL =   /* heat exchange coefficient over land */
(PID.TID 0000.0001)                 1.200000000000000E-03
(PID.TID 0000.0001)     ;
(PID.TID 0000.0001) AIM_SFL:    CHS =   /* heat exchange coefficient over sea  */
(PID.TID 0000.0001)                 8.000000000000000E-04
(PID.TID 0000.0001)     ;
(PID.TID 0000.0001) AIM_SFL:  VGUST =   /* wind speed [m/s] for sub-grid-scale gusts */
(PID.TID 0000.0001)                 5.000000000000000E+00
(PID.TID 0000.0001)     ;
(PID.TID 0000.0001) AIM_SFL:  CTDAY =   /* daily-cycle correction (dTskin/dSSRad) */
(PID.TID 0000.0001)                 1.000000000000000E-02
(PID.TID 0000.0001)     ;
(PID.TID 0000.0001) AIM_SFL: DTHETA =   /* Pot.Temp. gradient for stability correction */
(PID.TID 0000.0001)                 3.000000000000000E+00
(PID.TID 0000.0001)     ;
(PID.TID 0000.0001) AIM_SFL:  FSTAB =   /* Amplitude of stability correction (fract.) */
(PID.TID 0000.0001)                 6.700000000000000E-01
(PID.TID 0000.0001)     ;
(PID.TID 0000.0001) AIM_SFL:  HDRAG =   /* Height scale for orographic correction */
(PID.TID 0000.0001)                 2.000000000000000E+03
(PID.TID 0000.0001)     ;
(PID.TID 0000.0001) AIM_SFL: FHDRAG =   /* Amplitude of orographic correction (fract.)*/
(PID.TID 0000.0001)                 8.000000000000000E-01
(PID.TID 0000.0001)     ;
(PID.TID 0000.0001) AIM_CNV:  PSMIN =   /* min norm.sfc.P. for occurrence of convect. */
(PID.TID 0000.0001)                 7.000000000000000E-01
(PID.TID 0000.0001)     ;
(PID.TID 0000.0001) AIM_CNV:  TRCNV =   /* time of relaxation [h] towards ref state */
(PID.TID 0000.0001)                 6.000000000000000E+00
(PID.TID 0000.0001)     ;
(PID.TID 0000.0001) AIM_CNV:    QBL =   /* specific hum. threshold in the Bound.layer */
(PID.TID 0000.0001)                 1.500000000000000E+01
(PID.TID 0000.0001)     ;
(PID.TID 0000.0001) AIM_CNV:   RHBL =   /* relative hum. threshold in the Bound.layer */
(PID.TID 0000.0001)                 8.000000000000000E-01
(PID.TID 0000.0001)     ;
(PID.TID 0000.0001) AIM_CNV:   RHIL =   /* rel.hum. threshold (intern) for 2nd mass.Flx*/
(PID.TID 0000.0001)                 7.000000000000000E-01
(PID.TID 0000.0001)     ;
(PID.TID 0000.0001) AIM_CNV: ENTMAX =   /* time of relaxation [h] towards neutral eq. */
(PID.TID 0000.0001)                 5.000000000000000E-01
(PID.TID 0000.0001)     ;
(PID.TID 0000.0001) AIM_CNV:    SMF =   /* ratio 2ndary/primary mass.Flx at cloud-base*/
(PID.TID 0000.0001)                 5.000000000000000E-01
(PID.TID 0000.0001)     ;
(PID.TID 0000.0001) AIM_LSC:  TRLSC =   /* relaxation time [h] for supersat. spec.hum. */
(PID.TID 0000.0001)                 4.000000000000000E+00
(PID.TID 0000.0001)     ;
(PID.TID 0000.0001) AIM_LSC:  RHLSC =   /* Max rel.humidity threshold (at sigma=1) */
(PID.TID 0000.0001)                 9.000000000000000E-01
(PID.TID 0000.0001)     ;
(PID.TID 0000.0001) AIM_LSC: DRHLSC =   /* Vertical range of rel.humidity threshold */
(PID.TID 0000.0001)                 1.000000000000000E-01
(PID.TID 0000.0001)     ;
(PID.TID 0000.0001) AIM_LSC:  QSMAX =   /* Define the maximum latent heat release */
(PID.TID 0000.0001)                 5.000000000000000E+01
(PID.TID 0000.0001)     ;
(PID.TID 0000.0001) AIM_RAD:  RHCL1 =   /*  rel.hum. corresponding to cloud cover = 0 */
(PID.TID 0000.0001)                 4.500000000000000E-01
(PID.TID 0000.0001)     ;
(PID.TID 0000.0001) AIM_RAD:  RHCL2 =   /*  rel.hum. corresponding to cloud cover = 1 */
(PID.TID 0000.0001)                 8.500000000000000E-01
(PID.TID 0000.0001)     ;
(PID.TID 0000.0001) AIM_RAD:  QACL1 =   /* spec.hum. threshold for cloud, upper trop. */
(PID.TID 0000.0001)                 1.000000000000000E-01
(PID.TID 0000.0001)     ;
(PID.TID 0000.0001) AIM_RAD:  QACL2 =   /* spec.hum. threshold for cloud, upper trop. */
(PID.TID 0000.0001)                 1.000000000000000E+00
(PID.TID 0000.0001)     ;
(PID.TID 0000.0001) AIM_RAD:  ALBCL =   /*  cloud albedo (for cloud cover = 1) */
(PID.TID 0000.0001)                 4.000000000000000E-01
(PID.TID 0000.0001)     ;
(PID.TID 0000.0001) AIM_RAD:  EPSSW =   /*  fract. of inc.solar rad. absorbed by ozone */
(PID.TID 0000.0001)                 1.500000000000000E-02
(PID.TID 0000.0001)     ;
(PID.TID 0000.0001) AIM_RAD:  EPSLW =   /*  fract. of sfc LW emitted directly to space */
(PID.TID 0000.0001)                 0.000000000000000E+00
(PID.TID 0000.0001)     ;
(PID.TID 0000.0001) AIM_RAD: EMISFC =   /*  longwave surface emissivity */
(PID.TID 0000.0001)                 9.800000000000000E-01
(PID.TID 0000.0001)     ;
(PID.TID 0000.0001)  AIM_RAD : ShortWave absorptivities (for dp = 10^5 Pa) :
(PID.TID 0000.0001) AIM_RAD: ABSDRY =   /* abs. of dry air (visible band) */
(PID.TID 0000.0001)                 3.300000000000000E-02
(PID.TID 0000.0001)     ;
(PID.TID 0000.0001) AIM_RAD: ABSAER =   /* abs. of aerosols (visible band) */
(PID.TID 0000.0001)                 3.300000000000000E-02
(PID.TID 0000.0001)     ;
(PID.TID 0000.0001) AIM_RAD: ABSWV1 =   /* abs. of water vap. (vis. band)(/dq, 1g/kg) */
(PID.TID 0000.0001)                 2.200000000000000E-02
(PID.TID 0000.0001)     ;
(PID.TID 0000.0001) AIM_RAD: ABSWV1 =   /* abs. of water vap. (vis. band)(/dq, 1g/kg) */
(PID.TID 0000.0001)                 2.200000000000000E-02
(PID.TID 0000.0001)     ;
(PID.TID 0000.0001) AIM_RAD: ABSWV2 =   /* abs. of water vap.(near IR bd)(/dq, 1g/kg) */
(PID.TID 0000.0001)                 1.500000000000000E+01
(PID.TID 0000.0001)     ;
(PID.TID 0000.0001) AIM_RAD: ABSCL1 =   /* abs. of clouds (vis.band)(constant term) */
(PID.TID 0000.0001)                 0.000000000000000E+00
(PID.TID 0000.0001)     ;
(PID.TID 0000.0001) AIM_RAD: ABSCL2 =   /* abs. of clouds (vis.band) (/dw, 1g/kg) */
(PID.TID 0000.0001)                 1.000000000000000E-02
(PID.TID 0000.0001)     ;
(PID.TID 0000.0001) AIM_RAD: ABLWIN =   /* abs. of air in "window" band */
(PID.TID 0000.0001)                 7.000000000000000E-01
(PID.TID 0000.0001)     ;
(PID.TID 0000.0001) AIM_RAD: ABLCO2 =   /* abs. of air in CO2 band */
(PID.TID 0000.0001)                 4.000000000000000E+00
(PID.TID 0000.0001)     ;
(PID.TID 0000.0001) AIM_RAD: ABLWV1 =   /* abs. of Water vap. H2O bd-1(weak)(/dq,1g/kg)*/
(PID.TID 0000.0001)                 7.000000000000000E-01
(PID.TID 0000.0001)     ;
(PID.TID 0000.0001) AIM_RAD: ABLWV2 =   /* abs. of W. vap., H2O bd-2(strong)(/dq,1g/kg)*/
(PID.TID 0000.0001)                 5.000000000000000E+01
(PID.TID 0000.0001)     ;
(PID.TID 0000.0001) AIM_RAD: ABLCL1 =   /* abs. of clouds in window band (const term) */
(PID.TID 0000.0001)                 1.200000000000000E+01
(PID.TID 0000.0001)     ;
(PID.TID 0000.0001) AIM_RAD: ABLCL2 =   /* abs. of clouds in window band (/dw, 1g/kg) */
(PID.TID 0000.0001)                 0.000000000000000E+00
(PID.TID 0000.0001)     ;
(PID.TID 0000.0001) AIM_VDI:  TRSHC =   /* relaxation time [h] for shallow convection */
(PID.TID 0000.0001)                 2.400000000000000E+01
(PID.TID 0000.0001)     ;
(PID.TID 0000.0001) AIM_VDI:  TRVDI =   /* relaxation time [h] for moisture diffusion */
(PID.TID 0000.0001)                 4.000000000000000E+01
(PID.TID 0000.0001)     ;
(PID.TID 0000.0001) AIM_VDI:  TRVDS =   /* relaxation time [h] for super-adiab. cond. */
(PID.TID 0000.0001)                 5.000000000000000E+00
(PID.TID 0000.0001)     ;
(PID.TID 0000.0001) AIM_VDI: RHGRAD =   /* max gradient of rel.humidity (d_RH/d_sigma)*/
(PID.TID 0000.0001)                 5.000000000000000E-01
(PID.TID 0000.0001)     ;
(PID.TID 0000.0001) AIM_VDI: RHGRAD =   /* max grad. of dry static Energy(d_DSE/d_phi)*/
(PID.TID 0000.0001)                 5.000000000000000E-01
(PID.TID 0000.0001)     ;
INI_P_GROUND: PhiRef/g [m] at Center (integer) and Interface (half-int.) levels:
  K=  0.5  ;  r=  100000.0  ;  phiRef/g=       0.000
  K=  1.0  ;  r=   95000.0  ;  phiRef/g=     418.526
  K=  1.5  ;  r=   90000.0  ;  phiRef/g=    1219.560
  K=  2.0  ;  r=   77500.0  ;  phiRef/g=    2044.053
  K=  2.5  ;  r=   65000.0  ;  phiRef/g=    3664.142
  K=  3.0  ;  r=   50000.0  ;  phiRef/g=    5384.296
  K=  3.5  ;  r=   35000.0  ;  phiRef/g=    7701.142
  K=  4.0  ;  r=   25000.0  ;  phiRef/g=   10200.400
  K=  4.5  ;  r=   15000.0  ;  phiRef/g=   13521.874
  K=  5.0  ;  r=    7500.0  ;  phiRef/g=   17856.056
  K=  5.5  ;  r=       0.0  ;  phiRef/g=   38969.174
(PID.TID 0000.0001) 
(PID.TID 0000.0001) // ===================================
(PID.TID 0000.0001) // GAD parameters :
(PID.TID 0000.0001) // ===================================
(PID.TID 0000.0001) tempAdvScheme =   /* Temp. advection scheme selector */
(PID.TID 0000.0001)                       2
(PID.TID 0000.0001)     ;
(PID.TID 0000.0001) tempMultiDimAdvec =   /* use Muti-Dim Advec method for Temp */
(PID.TID 0000.0001)                   F
(PID.TID 0000.0001)     ;
(PID.TID 0000.0001) tempAdamsBashforth =   /* use Adams-Bashforth time-stepping for Temp */
(PID.TID 0000.0001)                   T
(PID.TID 0000.0001)     ;
(PID.TID 0000.0001) saltAdvScheme =   /* Salt. advection scheme selector */
(PID.TID 0000.0001)                       3
(PID.TID 0000.0001)     ;
(PID.TID 0000.0001) saltMultiDimAdvec =   /* use Muti-Dim Advec method for Salt */
(PID.TID 0000.0001)                   F
(PID.TID 0000.0001)     ;
(PID.TID 0000.0001) saltAdamsBashforth =   /* use Adams-Bashforth time-stepping for Salt */
(PID.TID 0000.0001)                   T
(PID.TID 0000.0001)     ;
(PID.TID 0000.0001) // ===================================
INI_P_GROUND: PhiRef/g [m] at Center (integer) and Interface (half-int.) levels:
  K=  0.5  ;  r=  100000.0  ;  phiRef/g=       0.000
  K=  1.0  ;  r=   95000.0  ;  phiRef/g=     418.526
  K=  1.5  ;  r=   90000.0  ;  phiRef/g=    1219.560
  K=  2.0  ;  r=   77500.0  ;  phiRef/g=    2044.053
  K=  2.5  ;  r=   65000.0  ;  phiRef/g=    3664.142
  K=  3.0  ;  r=   50000.0  ;  phiRef/g=    5384.296
  K=  3.5  ;  r=   35000.0  ;  phiRef/g=    7701.142
  K=  4.0  ;  r=   25000.0  ;  phiRef/g=   10200.400
  K=  4.5  ;  r=   15000.0  ;  phiRef/g=   13521.874
  K=  5.0  ;  r=    7500.0  ;  phiRef/g=   17856.056
  K=  5.5  ;  r=       0.0  ;  phiRef/g=   38969.174
(PID.TID 0000.0001) %MON fCori_max                    =   1.4535016908525E-04
(PID.TID 0000.0001) %MON fCori_min                    =  -1.4535016908525E-04
(PID.TID 0000.0001) %MON fCori_mean                   =   8.5365039215472E-22
(PID.TID 0000.0001) %MON fCori_sd                     =   8.3972192788621E-05
(PID.TID 0000.0001) %MON fCoriG_max                   =   1.4544410433286E-04
(PID.TID 0000.0001) %MON fCoriG_min                   =  -1.4544410433286E-04
(PID.TID 0000.0001) %MON fCoriG_mean                  =   9.9796700966398E-22
(PID.TID 0000.0001) %MON fCoriG_sd                    =   8.4860812167727E-05
(PID.TID 0000.0001) %MON fCoriCos_max                 =   1.4540341538469E-04
(PID.TID 0000.0001) %MON fCoriCos_min                 =   5.2264550201501E-06
(PID.TID 0000.0001) %MON fCoriCos_mean                =   1.1482595466044E-04
(PID.TID 0000.0001) %MON fCoriCos_sd                  =   3.0292878037194E-05
(PID.TID 0000.0001) // CG2D normalisation factor =          0.9911960384346746067178377E-05
(PID.TID 0000.0001) 
 ini_cg2d: sumArea,cg2dTolerance =  5.09904363781724E+14  1.12314485635777E-10
(PID.TID 0000.0001) CONFIG_CHECK: OK
(PID.TID 0000.0001) // =======================================================
(PID.TID 0000.0001) // Model configuration
(PID.TID 0000.0001) // =======================================================
(PID.TID 0000.0001) //
(PID.TID 0000.0001) // "Physical" paramters ( PARM01 in namelist )
(PID.TID 0000.0001) //
(PID.TID 0000.0001) buoyancyRelation = ATMOSPHERIC
(PID.TID 0000.0001) tRef =   /* Reference temperature profile ( oC or oK ) */
(PID.TID 0000.0001)                 2.810890000000000E+02,      /* K =  1 */
(PID.TID 0000.0001)                 2.893210000000000E+02,      /* K =  2 */
(PID.TID 0000.0001)                 3.071910000000000E+02,      /* K =  3 */
(PID.TID 0000.0001)                 3.313770000000000E+02,      /* K =  4 */
(PID.TID 0000.0001)                 4.324130000000000E+02       /* K =  5 */
(PID.TID 0000.0001)     ;
(PID.TID 0000.0001) sRef =   /* Reference salinity profile ( ppt ) */
(PID.TID 0000.0001)     5 @  0.000000000000000E+00              /* K =  1:  5 */
(PID.TID 0000.0001)     ;
(PID.TID 0000.0001) viscAh =   /* Lateral eddy viscosity ( m^2/s ) */
(PID.TID 0000.0001)                 0.000000000000000E+00
(PID.TID 0000.0001)     ;
(PID.TID 0000.0001) viscAh =   /* Lateral biharmonic viscosity ( m^4/s ) */
(PID.TID 0000.0001)                 0.000000000000000E+00
(PID.TID 0000.0001)     ;
(PID.TID 0000.0001) no_slip_sides =  /* Viscous BCs: No-slip sides */
(PID.TID 0000.0001)                   F
(PID.TID 0000.0001)     ;
(PID.TID 0000.0001) viscAr =   /* Vertical eddy viscosity ( units of r^2/s ) */
(PID.TID 0000.0001)                 0.000000000000000E+00
(PID.TID 0000.0001)     ;
(PID.TID 0000.0001) diffKhT =   /* Laplacian diffusion of heat laterally ( m^2/s ) */
(PID.TID 0000.0001)                 0.000000000000000E+00
(PID.TID 0000.0001)     ;
(PID.TID 0000.0001) diffK4T =   /* Bihaarmonic diffusion of heat laterally ( m^4/s ) */
(PID.TID 0000.0001)                 0.000000000000000E+00
(PID.TID 0000.0001)     ;
(PID.TID 0000.0001) diffKzT =   /* Laplacian diffusion of heat vertically ( m^2/s ) */
(PID.TID 0000.0001)                 1.234567000000000E+05
(PID.TID 0000.0001)     ;
(PID.TID 0000.0001) diffKrT =   /* Laplacian diffusion of heat vertically ( m^2/s ) */
(PID.TID 0000.0001)                 0.000000000000000E+00
(PID.TID 0000.0001)     ;
(PID.TID 0000.0001) diffKhS =   /* Laplacian diffusion of salt laterally ( m^2/s ) */
(PID.TID 0000.0001)                 0.000000000000000E+00
(PID.TID 0000.0001)     ;
(PID.TID 0000.0001) diffK4S =   /* Bihaarmonic diffusion of salt laterally ( m^4/s ) */
(PID.TID 0000.0001)                 0.000000000000000E+00
(PID.TID 0000.0001)     ;
(PID.TID 0000.0001) diffKzS =   /* Laplacian diffusion of salt vertically ( m^2/s ) */
(PID.TID 0000.0001)                 1.234567000000000E+05
(PID.TID 0000.0001)     ;
(PID.TID 0000.0001) diffKrS =   /* Laplacian diffusion of salt vertically ( m^2/s ) */
(PID.TID 0000.0001)                 0.000000000000000E+00
(PID.TID 0000.0001)     ;
(PID.TID 0000.0001)  Equation of State : eosType = IDEALG
(PID.TID 0000.0001) tAlpha =   /* Linear EOS thermal expansion coefficient ( 1/degree ) */
(PID.TID 0000.0001)                 1.234567000000000E+05
(PID.TID 0000.0001)     ;
(PID.TID 0000.0001) sBeta =   /* Linear EOS haline contraction coefficient ( 1/ppt ) */
(PID.TID 0000.0001)                 1.234567000000000E+05
(PID.TID 0000.0001)     ;
(PID.TID 0000.0001) atm_Rd =  /* gas constant for dry air ( J/kg/K ) */
(PID.TID 0000.0001)                 2.868571428571428E+02
(PID.TID 0000.0001)     ;
(PID.TID 0000.0001) atm_Cp =  /* specific heat (Cp) of dry air ( J/kg/K ) */
(PID.TID 0000.0001)                 1.004000000000000E+03
(PID.TID 0000.0001)     ;
(PID.TID 0000.0001) atm_kappa =  /* kappa (=Rd/Cp ) of dry air */
(PID.TID 0000.0001)                 2.857142857142857E-01
(PID.TID 0000.0001)     ;
(PID.TID 0000.0001) atm_Po =  /* standard reference pressure ( Pa ) */
(PID.TID 0000.0001)                 1.000000000000000E+05
(PID.TID 0000.0001)     ;
(PID.TID 0000.0001) integr_GeoPot =  /* select how the geopotential is integrated */
(PID.TID 0000.0001)                       2
(PID.TID 0000.0001)     ;
(PID.TID 0000.0001) selectFindRoSurf=  /* select how Surf.Ref. pressure is defined */
(PID.TID 0000.0001)                       0
(PID.TID 0000.0001)     ;
(PID.TID 0000.0001) rhonil =   /* Reference density ( kg/m^3 ) */
(PID.TID 0000.0001)                 1.000000000000000E+00
(PID.TID 0000.0001)     ;
(PID.TID 0000.0001) rhoConst =   /* Reference density ( kg/m^3 ) */
(PID.TID 0000.0001)                 1.000000000000000E+00
(PID.TID 0000.0001)     ;
(PID.TID 0000.0001) rhoConstFresh =   /* Reference density ( kg/m^3 ) */
(PID.TID 0000.0001)                 9.998000000000000E+02
(PID.TID 0000.0001)     ;
(PID.TID 0000.0001) gravity =   /* Gravitational acceleration ( m/s^2 ) */
(PID.TID 0000.0001)                 9.810000000000000E+00
(PID.TID 0000.0001)     ;
(PID.TID 0000.0001) gBaro =   /* Barotropic gravity ( m/s^2 ) */
(PID.TID 0000.0001)                 9.810000000000000E+00
(PID.TID 0000.0001)     ;
(PID.TID 0000.0001) rotationPeriod =   /* Rotation Period ( s ) */
(PID.TID 0000.0001)                 8.640000000000000E+04
(PID.TID 0000.0001)     ;
(PID.TID 0000.0001) omega =   /* Angular velocity ( rad/s ) */
(PID.TID 0000.0001)                 7.272205216643040E-05
(PID.TID 0000.0001)     ;
(PID.TID 0000.0001) f0 =   /* Reference coriolis parameter ( 1/s ) */
(PID.TID 0000.0001)                 1.000000000000000E-04
(PID.TID 0000.0001)     ;
(PID.TID 0000.0001) beta =   /* Beta ( 1/(m.s) ) */
(PID.TID 0000.0001)                 9.999999999999999E-12
(PID.TID 0000.0001)     ;
(PID.TID 0000.0001) freeSurfFac =   /* Implicit free surface factor */
(PID.TID 0000.0001)                 1.000000000000000E+00
(PID.TID 0000.0001)     ;
(PID.TID 0000.0001) implicitFreeSurface =   /* Implicit free surface on/off flag */
(PID.TID 0000.0001)                   T
(PID.TID 0000.0001)     ;
(PID.TID 0000.0001) rigidLid =   /* Rigid lid on/off flag */
(PID.TID 0000.0001)                   F
(PID.TID 0000.0001)     ;
(PID.TID 0000.0001) implicSurfPress =   /* Surface Pressure implicit factor (0-1)*/
(PID.TID 0000.0001)                 1.000000000000000E+00
(PID.TID 0000.0001)     ;
(PID.TID 0000.0001) implicDiv2Dflow =   /* Barot. Flow Div. implicit factor (0-1)*/
(PID.TID 0000.0001)                 1.000000000000000E+00
(PID.TID 0000.0001)     ;
(PID.TID 0000.0001) exactConserv =   /* Exact Volume Conservation on/off flag*/
(PID.TID 0000.0001)                   T
(PID.TID 0000.0001)     ;
(PID.TID 0000.0001) uniformLin_PhiSurf =   /* use uniform Bo_surf on/off flag*/
(PID.TID 0000.0001)                   F
(PID.TID 0000.0001)     ;
(PID.TID 0000.0001) nonlinFreeSurf =   /* Non-linear Free Surf. options (-1,0,1,2,3)*/
(PID.TID 0000.0001)                       0
(PID.TID 0000.0001)     ;
(PID.TID 0000.0001)      -1,0= Off ; 1,2,3= On, 2=+rescale gU,gV, 3=+update cg2d solv.
(PID.TID 0000.0001) hFacInf =   /* lower threshold for hFac (nonlinFreeSurf only)*/
(PID.TID 0000.0001)                 2.000000000000000E-01
(PID.TID 0000.0001)     ;
(PID.TID 0000.0001) hFacSup =   /* upper threshold for hFac (nonlinFreeSurf only)*/
(PID.TID 0000.0001)                 2.000000000000000E+00
(PID.TID 0000.0001)     ;
(PID.TID 0000.0001) select_rStar =   /* r* Coordinate options (not yet implemented)*/
(PID.TID 0000.0001)                       0
(PID.TID 0000.0001)     ;
(PID.TID 0000.0001) useRealFreshWaterFlux =   /* Real Fresh Water Flux on/off flag*/
(PID.TID 0000.0001)                   F
(PID.TID 0000.0001)     ;
(PID.TID 0000.0001) convertFW2Salt = /* convert F.W. Flux to Salt Flux (-1=use local S)(ppt)*/
(PID.TID 0000.0001)                 3.500000000000000E+01
(PID.TID 0000.0001)     ;
(PID.TID 0000.0001) multiDimAdvection =   /* enable/disable Multi-Dim Advection */
(PID.TID 0000.0001)                   T
(PID.TID 0000.0001)     ;
(PID.TID 0000.0001) staggerTimeStep =   /* Stagger time stepping on/off flag */
(PID.TID 0000.0001)                   T
(PID.TID 0000.0001)     ;
(PID.TID 0000.0001) momStepping =  /* Momentum equation on/off flag */
(PID.TID 0000.0001)                   T
(PID.TID 0000.0001)     ;
(PID.TID 0000.0001) momAdvection =  /* Momentum advection on/off flag */
(PID.TID 0000.0001)                   T
(PID.TID 0000.0001)     ;
(PID.TID 0000.0001) momViscosity =  /* Momentum viscosity on/off flag */
(PID.TID 0000.0001)                   T
(PID.TID 0000.0001)     ;
(PID.TID 0000.0001) useCoriolis =  /* Coriolis on/off flag */
(PID.TID 0000.0001)                   T
(PID.TID 0000.0001)     ;
(PID.TID 0000.0001) momForcing =  /* Momentum forcing on/off flag */
(PID.TID 0000.0001)                   T
(PID.TID 0000.0001)     ;
(PID.TID 0000.0001) momPressureForcing =  /* Momentum pressure term on/off flag */
(PID.TID 0000.0001)                   T
(PID.TID 0000.0001)     ;
(PID.TID 0000.0001) tempStepping =  /* Temperature equation on/off flag */
(PID.TID 0000.0001)                   T
(PID.TID 0000.0001)     ;
(PID.TID 0000.0001) tempAdvection=  /* Temperature advection on/off flag */
(PID.TID 0000.0001)                   T
(PID.TID 0000.0001)     ;
(PID.TID 0000.0001) tempForcing  =  /* Temperature forcing on/off flag */
(PID.TID 0000.0001)                   T
(PID.TID 0000.0001)     ;
(PID.TID 0000.0001) saltStepping =  /* Salinity equation on/off flag */
(PID.TID 0000.0001)                   T
(PID.TID 0000.0001)     ;
(PID.TID 0000.0001) saltAdvection=  /* Salinity advection on/off flag */
(PID.TID 0000.0001)                   T
(PID.TID 0000.0001)     ;
(PID.TID 0000.0001) saltForcing  =  /* Salinity forcing on/off flag */
(PID.TID 0000.0001)                   T
(PID.TID 0000.0001)     ;
(PID.TID 0000.0001) nonHydrostatic =  /* Non-Hydrostatic on/off flag */
(PID.TID 0000.0001)                   F
(PID.TID 0000.0001)     ;
(PID.TID 0000.0001) useCDscheme =  /* CD scheme on/off flag */
(PID.TID 0000.0001)                   F
(PID.TID 0000.0001)     ;
(PID.TID 0000.0001) useJamartWetPoints= /* Coriolis WetPoints method flag */
(PID.TID 0000.0001)                   F
(PID.TID 0000.0001)     ;
(PID.TID 0000.0001) //
(PID.TID 0000.0001) // Elliptic solver(s) paramters ( PARM02 in namelist )
(PID.TID 0000.0001) //
(PID.TID 0000.0001) cg2dMaxIters =   /* Upper limit on 2d con. grad iterations  */
(PID.TID 0000.0001)                     200
(PID.TID 0000.0001)     ;
(PID.TID 0000.0001) cg2dChkResFreq =   /* 2d con. grad convergence test frequency */
(PID.TID 0000.0001)                       1
(PID.TID 0000.0001)     ;
(PID.TID 0000.0001) cg2dTargetResidual =   /* 2d con. grad target residual  */
(PID.TID 0000.0001)                 1.000000000000000E-07
(PID.TID 0000.0001)     ;
(PID.TID 0000.0001) //
(PID.TID 0000.0001) // Time stepping paramters ( PARM03 in namelist )
(PID.TID 0000.0001) //
(PID.TID 0000.0001) nIter0 =   /* Base timestep number  */
(PID.TID 0000.0001)                   17280
(PID.TID 0000.0001)     ;
(PID.TID 0000.0001) nTimeSteps =   /* Number of timesteps */
(PID.TID 0000.0001)                      10
(PID.TID 0000.0001)     ;
(PID.TID 0000.0001) deltatTmom =   /* Momentum equation timestep ( s ) */
(PID.TID 0000.0001)                 4.500000000000000E+02
(PID.TID 0000.0001)     ;
(PID.TID 0000.0001) deltaTfreesurf =   /* FreeSurface equation timestep ( s ) */
(PID.TID 0000.0001)                 4.500000000000000E+02
(PID.TID 0000.0001)     ;
(PID.TID 0000.0001) deltatTtracer =   /* Tracer equation timestep ( s ) */
(PID.TID 0000.0001)                 4.500000000000000E+02
(PID.TID 0000.0001)     ;
(PID.TID 0000.0001) deltatTClock  =   /* Model clock timestep ( s ) */
(PID.TID 0000.0001)                 4.500000000000000E+02
(PID.TID 0000.0001)     ;
(PID.TID 0000.0001) cAdjFreq =   /* Convective adjustment interval ( s ) */
(PID.TID 0000.0001)                 0.000000000000000E+00
(PID.TID 0000.0001)     ;
(PID.TID 0000.0001) forcing_In_AB =   /* put T,S Forcing in Adams-Bash. stepping */
(PID.TID 0000.0001)                   F
(PID.TID 0000.0001)     ;
(PID.TID 0000.0001) abeps =   /* Adams-Bashforth stabilizing weight */
(PID.TID 0000.0001)                 1.000000000000000E-01
(PID.TID 0000.0001)     ;
(PID.TID 0000.0001) startTime =   /* Run start time ( s ). */
(PID.TID 0000.0001)                 7.776000000000000E+06
(PID.TID 0000.0001)     ;
(PID.TID 0000.0001) endTime =   /* Integration ending time ( s ). */
(PID.TID 0000.0001)                 7.780500000000000E+06
(PID.TID 0000.0001)     ;
(PID.TID 0000.0001) pChkPtFreq =   /* Permanent restart/checkpoint file interval ( s ). */
(PID.TID 0000.0001)                 2.592000000000000E+06
(PID.TID 0000.0001)     ;
(PID.TID 0000.0001) chkPtFreq =   /* Rolling restart/checkpoint file interval ( s ). */
(PID.TID 0000.0001)                 0.000000000000000E+00
(PID.TID 0000.0001)     ;
(PID.TID 0000.0001) dumpFreq =   /* Model state write out interval ( s ). */
(PID.TID 0000.0001)                 2.592000000000000E+06
(PID.TID 0000.0001)     ;
(PID.TID 0000.0001) //
(PID.TID 0000.0001) // Gridding paramters ( PARM04 in namelist )
(PID.TID 0000.0001) //
(PID.TID 0000.0001) usingCartesianGrid =   /* Cartesian coordinates flag ( True / False ) */
(PID.TID 0000.0001)                   F
(PID.TID 0000.0001)     ;
(PID.TID 0000.0001) usingSphericalPolarGrid =   /* Spherical coordinates flag ( True / False ) */
(PID.TID 0000.0001)                   F
(PID.TID 0000.0001)     ;
(PID.TID 0000.0001) groundAtK1 =   /* Lower Boundary (ground) at the surface(k=1) ( T / F ) */
(PID.TID 0000.0001)                   T
(PID.TID 0000.0001)     ;
(PID.TID 0000.0001) Ro_SeaLevel =   /* r(1) ( units of r ) */
(PID.TID 0000.0001)                 1.000000000000000E+05
(PID.TID 0000.0001)     ;
(PID.TID 0000.0001) rkFac =   /* minus Vertical index orientation  */
(PID.TID 0000.0001)                 1.000000000000000E+00
(PID.TID 0000.0001)     ;
(PID.TID 0000.0001) horiVertRatio =   /* Ratio on units : Horiz - Vertical */
(PID.TID 0000.0001)                 9.810000000000000E+00
(PID.TID 0000.0001)     ;
(PID.TID 0000.0001) drC =   /* C spacing ( units of r ) */
(PID.TID 0000.0001)                 5.000000000000000E+03,      /* K =  1 */
(PID.TID 0000.0001)                 1.750000000000000E+04,      /* K =  2 */
(PID.TID 0000.0001)                 2.750000000000000E+04,      /* K =  3 */
(PID.TID 0000.0001)                 2.500000000000000E+04,      /* K =  4 */
(PID.TID 0000.0001)                 1.750000000000000E+04       /* K =  5 */
(PID.TID 0000.0001)     ;
(PID.TID 0000.0001) drF =   /* W spacing ( units of r ) */
(PID.TID 0000.0001)                 1.000000000000000E+04,      /* K =  1 */
(PID.TID 0000.0001)                 2.500000000000000E+04,      /* K =  2 */
(PID.TID 0000.0001)                 3.000000000000000E+04,      /* K =  3 */
(PID.TID 0000.0001)                 2.000000000000000E+04,      /* K =  4 */
(PID.TID 0000.0001)                 1.500000000000000E+04       /* K =  5 */
(PID.TID 0000.0001)     ;
(PID.TID 0000.0001) delX =   /* U spacing ( m - cartesian, degrees - spherical ) */
(PID.TID 0000.0001)   192 @  1.234567000000000E+05              /* I =  1:192 */
(PID.TID 0000.0001)     ;
(PID.TID 0000.0001) delY =   /* V spacing ( m - cartesian, degrees - spherical ) */
(PID.TID 0000.0001)    32 @  1.234567000000000E+05              /* J =  1: 32 */
(PID.TID 0000.0001)     ;
(PID.TID 0000.0001) phiMin =    /* South edge (ignored - cartesian, degrees - spherical ) */
(PID.TID 0000.0001)                 0.000000000000000E+00
(PID.TID 0000.0001)     ;
(PID.TID 0000.0001) thetaMin =    /* West edge ( ignored - cartesian, degrees - spherical ) */
(PID.TID 0000.0001)                 0.000000000000000E+00
(PID.TID 0000.0001)     ;
(PID.TID 0000.0001) rSphere =    /* Radius ( ignored - cartesian, m - spherical ) */
(PID.TID 0000.0001)                 6.370000000000000E+06
(PID.TID 0000.0001)     ;
(PID.TID 0000.0001) xcoord =   /* P-point X coord ( m - cartesian, degrees - spherical ) */
(PID.TID 0000.0001)                -4.439521994760536E+01,      /* I =  1 */
(PID.TID 0000.0001)                -4.295641272275883E+01,      /* I =  2 */
(PID.TID 0000.0001)                -4.122055553388957E+01,      /* I =  3 */
(PID.TID 0000.0001)                -3.923446288487304E+01,      /* I =  4 */
(PID.TID 0000.0001)                -3.702585158682200E+01,      /* I =  5 */
(PID.TID 0000.0001)                -3.461179367094151E+01,      /* I =  6 */
(PID.TID 0000.0001)                -3.200434569041793E+01,      /* I =  7 */
(PID.TID 0000.0001)                -2.921355965632675E+01,      /* I =  8 */
(PID.TID 0000.0001)                -2.624932223028290E+01,      /* I =  9 */
(PID.TID 0000.0001)                -2.312261250426344E+01,      /* I = 10 */
(PID.TID 0000.0001)                -1.984640717127058E+01,      /* I = 11 */
(PID.TID 0000.0001)                -1.643630800555134E+01,      /* I = 12 */
(PID.TID 0000.0001)                -1.291089806302069E+01,      /* I = 13 */
(PID.TID 0000.0001)                -9.291807802719402E+00,      /* I = 14 */
(PID.TID 0000.0001)                -5.603475335822332E+00,      /* I = 15 */
(PID.TID 0000.0001)                -1.872608513033445E+00,      /* I = 16 */
(PID.TID 0000.0001)                 1.872608513033445E+00,      /* I = 17 */
(PID.TID 0000.0001)                 5.603475335822332E+00,      /* I = 18 */
(PID.TID 0000.0001)                 9.291807802719402E+00,      /* I = 19 */
(PID.TID 0000.0001)                 1.291089806302069E+01,      /* I = 20 */
(PID.TID 0000.0001)                 1.643630800555134E+01,      /* I = 21 */
(PID.TID 0000.0001)                 1.984640717127058E+01,      /* I = 22 */
(PID.TID 0000.0001)                 2.312261250426344E+01,      /* I = 23 */
(PID.TID 0000.0001)                 2.624932223028290E+01,      /* I = 24 */
(PID.TID 0000.0001)                 2.921355965632675E+01,      /* I = 25 */
(PID.TID 0000.0001)                 3.200434569041793E+01,      /* I = 26 */
(PID.TID 0000.0001)                 3.461179367094151E+01,      /* I = 27 */
(PID.TID 0000.0001)                 3.702585158682200E+01,      /* I = 28 */
(PID.TID 0000.0001)                 3.923446288487304E+01,      /* I = 29 */
(PID.TID 0000.0001)                 4.122055553388957E+01,      /* I = 30 */
(PID.TID 0000.0001)                 4.295641272275883E+01,      /* I = 31 */
(PID.TID 0000.0001)                 4.439521994760536E+01,      /* I = 32 */
(PID.TID 0000.0001)                 4.560478005239464E+01,      /* I = 33 */
(PID.TID 0000.0001)                 4.704358727724117E+01,      /* I = 34 */
(PID.TID 0000.0001)                 4.877944446611043E+01,      /* I = 35 */
(PID.TID 0000.0001)                 5.076553711512697E+01,      /* I = 36 */
(PID.TID 0000.0001)                 5.297414841317801E+01,      /* I = 37 */
(PID.TID 0000.0001)                 5.538820632905850E+01,      /* I = 38 */
(PID.TID 0000.0001)                 5.799565430958209E+01,      /* I = 39 */
(PID.TID 0000.0001)                 6.078644034367325E+01,      /* I = 40 */
(PID.TID 0000.0001)                 6.375067776971711E+01,      /* I = 41 */
(PID.TID 0000.0001)                 6.687738749573657E+01,      /* I = 42 */
(PID.TID 0000.0001)                 7.015359282872943E+01,      /* I = 43 */
(PID.TID 0000.0001)                 7.356369199444866E+01,      /* I = 44 */
(PID.TID 0000.0001)                 7.708910193697932E+01,      /* I = 45 */
(PID.TID 0000.0001)                 8.070819219728060E+01,      /* I = 46 */
(PID.TID 0000.0001)                 8.439652466417766E+01,      /* I = 47 */
(PID.TID 0000.0001)                 8.812739148696656E+01,      /* I = 48 */
(PID.TID 0000.0001)                 9.187260851303344E+01,      /* I = 49 */
(PID.TID 0000.0001)                 9.560347533582234E+01,      /* I = 50 */
(PID.TID 0000.0001)                 9.929180780271940E+01,      /* I = 51 */
(PID.TID 0000.0001)                 1.029108980630207E+02,      /* I = 52 */
(PID.TID 0000.0001)                 1.064363080055513E+02,      /* I = 53 */
(PID.TID 0000.0001)                 1.098464071712706E+02,      /* I = 54 */
(PID.TID 0000.0001)                 1.131226125042634E+02,      /* I = 55 */
(PID.TID 0000.0001)                 1.162493222302829E+02,      /* I = 56 */
(PID.TID 0000.0001)                 1.192135596563268E+02,      /* I = 57 */
(PID.TID 0000.0001)                 1.220043456904179E+02,      /* I = 58 */
(PID.TID 0000.0001)                 1.246117936709415E+02,      /* I = 59 */
(PID.TID 0000.0001)                 1.270258515868220E+02,      /* I = 60 */
(PID.TID 0000.0001)                 1.292344628848730E+02,      /* I = 61 */
(PID.TID 0000.0001)                 1.312205555338896E+02,      /* I = 62 */
(PID.TID 0000.0001)                 1.329564127227588E+02,      /* I = 63 */
(PID.TID 0000.0001)                 1.343952199476053E+02,      /* I = 64 */
(PID.TID 0000.0001)                 4.500000000000000E+01,      /* I = 65 */
(PID.TID 0000.0001)                 4.620805468796297E+01,      /* I = 66 */
(PID.TID 0000.0001)                 4.781369642513039E+01,      /* I = 67 */
(PID.TID 0000.0001)                 4.971767671143929E+01,      /* I = 68 */
(PID.TID 0000.0001)                 5.187738319787235E+01,      /* I = 69 */
(PID.TID 0000.0001)                 5.427004371478710E+01,      /* I = 70 */
(PID.TID 0000.0001)                 5.688128325334060E+01,      /* I = 71 */
(PID.TID 0000.0001)                 5.970018167786760E+01,      /* I = 72 */
(PID.TID 0000.0001)                 6.271654991792347E+01,      /* I = 73 */
(PID.TID 0000.0001)                 6.591914604853015E+01,      /* I = 74 */
(PID.TID 0000.0001)                 6.929439270484148E+01,      /* I = 75 */
(PID.TID 0000.0001)                 7.282545807616151E+01,      /* I = 76 */
(PID.TID 0000.0001)                 7.649168830618933E+01,      /* I = 77 */
(PID.TID 0000.0001)                 8.026842803787176E+01,      /* I = 78 */
(PID.TID 0000.0001)                 8.412726743124185E+01,      /* I = 79 */
(PID.TID 0000.0001)                 8.803672008547504E+01,      /* I = 80 */
(PID.TID 0000.0001)                 9.196327991452496E+01,      /* I = 81 */
(PID.TID 0000.0001)                 9.587273256875815E+01,      /* I = 82 */
(PID.TID 0000.0001)                 9.973157196212824E+01,      /* I = 83 */
(PID.TID 0000.0001)                 1.035083116938107E+02,      /* I = 84 */
(PID.TID 0000.0001)                 1.071745419238385E+02,      /* I = 85 */
(PID.TID 0000.0001)                 1.107056072951585E+02,      /* I = 86 */
(PID.TID 0000.0001)                 1.140808539514698E+02,      /* I = 87 */
(PID.TID 0000.0001)                 1.172834500820765E+02,      /* I = 88 */
(PID.TID 0000.0001)                 1.202998183221324E+02,      /* I = 89 */
(PID.TID 0000.0001)                 1.231187167466594E+02,      /* I = 90 */
(PID.TID 0000.0001)                 1.257299562852129E+02,      /* I = 91 */
(PID.TID 0000.0001)                 1.281226168021277E+02,      /* I = 92 */
(PID.TID 0000.0001)                 1.302823232885607E+02,      /* I = 93 */
(PID.TID 0000.0001)                 1.321863035748696E+02,      /* I = 94 */
(PID.TID 0000.0001)                 1.337919453120370E+02,      /* I = 95 */
(PID.TID 0000.0001)                 1.350000000000000E+02,      /* I = 96 */
(PID.TID 0000.0001)                 1.356047800523947E+02,      /* I = 97 */
(PID.TID 0000.0001)                 1.358367907661329E+02,      /* I = 98 */
(PID.TID 0000.0001)                 1.359720382181193E+02,      /* I = 99 */
(PID.TID 0000.0001)                 1.360654656901789E+02,      /* I =100 */
(PID.TID 0000.0001)                 1.361344533147042E+02,      /* I =101 */
(PID.TID 0000.0001)                 1.361871219420981E+02,      /* I =102 */
(PID.TID 0000.0001)                 1.362280794509603E+02,      /* I =103 */
(PID.TID 0000.0001)                 1.362602511071934E+02,      /* I =104 */
(PID.TID 0000.0001)                 1.362856280326734E+02,      /* I =105 */
(PID.TID 0000.0001)                 1.363056266270901E+02,      /* I =106 */
(PID.TID 0000.0001)                 1.363212817739446E+02,      /* I =107 */
(PID.TID 0000.0001)                 1.363333595910255E+02,      /* I =108 */
(PID.TID 0000.0001)                 1.363424272425760E+02,      /* I =109 */
(PID.TID 0000.0001)                 1.363488978790713E+02,      /* I =110 */
(PID.TID 0000.0001)                 1.363530600590580E+02,      /* I =111 */
(PID.TID 0000.0001)     2 @  1.363550967500717E+02,             /* I =112:113 */
(PID.TID 0000.0001)                 1.363530600590580E+02,      /* I =114 */
(PID.TID 0000.0001)                 1.363488978790713E+02,      /* I =115 */
(PID.TID 0000.0001)                 1.363424272425760E+02,      /* I =116 */
(PID.TID 0000.0001)                 1.363333595910255E+02,      /* I =117 */
(PID.TID 0000.0001)                 1.363212817739446E+02,      /* I =118 */
(PID.TID 0000.0001)                 1.363056266270901E+02,      /* I =119 */
(PID.TID 0000.0001)                 1.362856280326734E+02,      /* I =120 */
(PID.TID 0000.0001)                 1.362602511071934E+02,      /* I =121 */
(PID.TID 0000.0001)                 1.362280794509603E+02,      /* I =122 */
(PID.TID 0000.0001)                 1.361871219420981E+02,      /* I =123 */
(PID.TID 0000.0001)                 1.361344533147042E+02,      /* I =124 */
(PID.TID 0000.0001)                 1.360654656901789E+02,      /* I =125 */
(PID.TID 0000.0001)                 1.359720382181193E+02,      /* I =126 */
(PID.TID 0000.0001)                 1.358367907661329E+02,      /* I =127 */
(PID.TID 0000.0001)                 1.356047800523947E+02,      /* I =128 */
(PID.TID 0000.0001)                -1.343952199476053E+02,      /* I =129 */
(PID.TID 0000.0001)                -1.341632092338671E+02,      /* I =130 */
(PID.TID 0000.0001)                -1.340279617818807E+02,      /* I =131 */
(PID.TID 0000.0001)                -1.339345343098211E+02,      /* I =132 */
(PID.TID 0000.0001)                -1.338655466852958E+02,      /* I =133 */
(PID.TID 0000.0001)                -1.338128780579019E+02,      /* I =134 */
(PID.TID 0000.0001)                -1.337719205490397E+02,      /* I =135 */
(PID.TID 0000.0001)                -1.337397488928066E+02,      /* I =136 */
(PID.TID 0000.0001)                -1.337143719673266E+02,      /* I =137 */
(PID.TID 0000.0001)                -1.336943733729099E+02,      /* I =138 */
(PID.TID 0000.0001)                -1.336787182260554E+02,      /* I =139 */
(PID.TID 0000.0001)                -1.336666404089745E+02,      /* I =140 */
(PID.TID 0000.0001)                -1.336575727574240E+02,      /* I =141 */
(PID.TID 0000.0001)                -1.336511021209287E+02,      /* I =142 */
(PID.TID 0000.0001)                -1.336469399409420E+02,      /* I =143 */
(PID.TID 0000.0001)     2 @ -1.336449032499283E+02,             /* I =144:145 */
(PID.TID 0000.0001)                -1.336469399409420E+02,      /* I =146 */
(PID.TID 0000.0001)                -1.336511021209287E+02,      /* I =147 */
(PID.TID 0000.0001)                -1.336575727574240E+02,      /* I =148 */
(PID.TID 0000.0001)                -1.336666404089745E+02,      /* I =149 */
(PID.TID 0000.0001)                -1.336787182260554E+02,      /* I =150 */
(PID.TID 0000.0001)                -1.336943733729099E+02,      /* I =151 */
(PID.TID 0000.0001)                -1.337143719673266E+02,      /* I =152 */
(PID.TID 0000.0001)                -1.337397488928066E+02,      /* I =153 */
(PID.TID 0000.0001)                -1.337719205490397E+02,      /* I =154 */
(PID.TID 0000.0001)                -1.338128780579019E+02,      /* I =155 */
(PID.TID 0000.0001)                -1.338655466852958E+02,      /* I =156 */
(PID.TID 0000.0001)                -1.339345343098211E+02,      /* I =157 */
(PID.TID 0000.0001)                -1.340279617818807E+02,      /* I =158 */
(PID.TID 0000.0001)                -1.341632092338671E+02,      /* I =159 */
(PID.TID 0000.0001)                -1.343952199476053E+02,      /* I =160 */
(PID.TID 0000.0001)                -1.350000000000000E+02,      /* I =161 */
(PID.TID 0000.0001)                -1.362080546879630E+02,      /* I =162 */
(PID.TID 0000.0001)                -1.378136964251304E+02,      /* I =163 */
(PID.TID 0000.0001)                -1.397176767114393E+02,      /* I =164 */
(PID.TID 0000.0001)                -1.418773831978723E+02,      /* I =165 */
(PID.TID 0000.0001)                -1.442700437147871E+02,      /* I =166 */
(PID.TID 0000.0001)                -1.468812832533406E+02,      /* I =167 */
(PID.TID 0000.0001)                -1.497001816778676E+02,      /* I =168 */
(PID.TID 0000.0001)                -1.527165499179235E+02,      /* I =169 */
(PID.TID 0000.0001)                -1.559191460485302E+02,      /* I =170 */
(PID.TID 0000.0001)                -1.592943927048415E+02,      /* I =171 */
(PID.TID 0000.0001)                -1.628254580761615E+02,      /* I =172 */
(PID.TID 0000.0001)                -1.664916883061893E+02,      /* I =173 */
(PID.TID 0000.0001)                -1.702684280378718E+02,      /* I =174 */
(PID.TID 0000.0001)                -1.741272674312418E+02,      /* I =175 */
(PID.TID 0000.0001)                -1.780367200854751E+02,      /* I =176 */
(PID.TID 0000.0001)                 1.780367200854751E+02,      /* I =177 */
(PID.TID 0000.0001)                 1.741272674312418E+02,      /* I =178 */
(PID.TID 0000.0001)                 1.702684280378718E+02,      /* I =179 */
(PID.TID 0000.0001)                 1.664916883061893E+02,      /* I =180 */
(PID.TID 0000.0001)                 1.628254580761615E+02,      /* I =181 */
(PID.TID 0000.0001)                 1.592943927048415E+02,      /* I =182 */
(PID.TID 0000.0001)                 1.559191460485302E+02,      /* I =183 */
(PID.TID 0000.0001)                 1.527165499179235E+02,      /* I =184 */
(PID.TID 0000.0001)                 1.497001816778676E+02,      /* I =185 */
(PID.TID 0000.0001)                 1.468812832533406E+02,      /* I =186 */
(PID.TID 0000.0001)                 1.442700437147871E+02,      /* I =187 */
(PID.TID 0000.0001)                 1.418773831978723E+02,      /* I =188 */
(PID.TID 0000.0001)                 1.397176767114393E+02,      /* I =189 */
(PID.TID 0000.0001)                 1.378136964251304E+02,      /* I =190 */
(PID.TID 0000.0001)                 1.362080546879630E+02,      /* I =191 */
(PID.TID 0000.0001)                 1.350000000000000E+02       /* I =192 */
(PID.TID 0000.0001)     ;
(PID.TID 0000.0001) ycoord =   /* P-point Y coord ( m - cartesian, degrees - spherical ) */
(PID.TID 0000.0001)                -3.497677942598243E+01,      /* J =  1 */
(PID.TID 0000.0001)                -3.374005967394886E+01,      /* J =  2 */
(PID.TID 0000.0001)                -3.220655175667454E+01,      /* J =  3 */
(PID.TID 0000.0001)                -3.045756348838641E+01,      /* J =  4 */
(PID.TID 0000.0001)                -2.853728129852918E+01,      /* J =  5 */
(PID.TID 0000.0001)                -2.647426640173173E+01,      /* J =  6 */
(PID.TID 0000.0001)                -2.428936657094636E+01,      /* J =  7 */
(PID.TID 0000.0001)                -2.199915808312262E+01,      /* J =  8 */
(PID.TID 0000.0001)                -1.961768597440146E+01,      /* J =  9 */
(PID.TID 0000.0001)                -1.715743888281371E+01,      /* J = 10 */
(PID.TID 0000.0001)                -1.462993396899330E+01,      /* J = 11 */
(PID.TID 0000.0001)                -1.204608340464756E+01,      /* J = 12 */
(PID.TID 0000.0001)                -9.416429130284818E+00,      /* J = 13 */
(PID.TID 0000.0001)                -6.751293662992216E+00,      /* J = 14 */
(PID.TID 0000.0001)                -4.060875511835959E+00,      /* J = 15 */
(PID.TID 0000.0001)                -1.355307764409121E+00,      /* J = 16 */
(PID.TID 0000.0001)                 1.355307764409121E+00,      /* J = 17 */
(PID.TID 0000.0001)                 4.060875511835959E+00,      /* J = 18 */
(PID.TID 0000.0001)                 6.751293662992216E+00,      /* J = 19 */
(PID.TID 0000.0001)                 9.416429130284818E+00,      /* J = 20 */
(PID.TID 0000.0001)                 1.204608340464756E+01,      /* J = 21 */
(PID.TID 0000.0001)                 1.462993396899330E+01,      /* J = 22 */
(PID.TID 0000.0001)                 1.715743888281371E+01,      /* J = 23 */
(PID.TID 0000.0001)                 1.961768597440146E+01,      /* J = 24 */
(PID.TID 0000.0001)                 2.199915808312262E+01,      /* J = 25 */
(PID.TID 0000.0001)                 2.428936657094636E+01,      /* J = 26 */
(PID.TID 0000.0001)                 2.647426640173173E+01,      /* J = 27 */
(PID.TID 0000.0001)                 2.853728129852918E+01,      /* J = 28 */
(PID.TID 0000.0001)                 3.045756348838641E+01,      /* J = 29 */
(PID.TID 0000.0001)                 3.220655175667454E+01,      /* J = 30 */
(PID.TID 0000.0001)                 3.374005967394886E+01,      /* J = 31 */
(PID.TID 0000.0001)                 3.497677942598243E+01       /* J = 32 */
(PID.TID 0000.0001)     ;
(PID.TID 0000.0001) rcoord =   /* P-point R coordinate (  units of r ) */
(PID.TID 0000.0001)                 9.500000000000000E+04,      /* K =  1 */
(PID.TID 0000.0001)                 7.750000000000000E+04,      /* K =  2 */
(PID.TID 0000.0001)                 5.000000000000000E+04,      /* K =  3 */
(PID.TID 0000.0001)                 2.500000000000000E+04,      /* K =  4 */
(PID.TID 0000.0001)                 7.500000000000000E+03       /* K =  5 */
(PID.TID 0000.0001)     ;
(PID.TID 0000.0001) rF =   /* W-Interf. R coordinate (  units of r ) */
(PID.TID 0000.0001)                 1.000000000000000E+05,      /* K =  1 */
(PID.TID 0000.0001)                 9.000000000000000E+04,      /* K =  2 */
(PID.TID 0000.0001)                 6.500000000000000E+04,      /* K =  3 */
(PID.TID 0000.0001)                 3.500000000000000E+04,      /* K =  4 */
(PID.TID 0000.0001)                 1.500000000000000E+04,      /* K =  5 */
(PID.TID 0000.0001)                 0.000000000000000E+00       /* K =  6 */
(PID.TID 0000.0001)     ;
(PID.TID 0000.0001) dxF =  /* dxF(:,1,:,1) ( m - cartesian, degrees - spherical ) */
(PID.TID 0000.0001)                 1.202082051331828E+05,      /* I =  1 */
(PID.TID 0000.0001)                 1.563594089971120E+05,      /* I =  2 */
(PID.TID 0000.0001)                 1.835530058121492E+05,      /* I =  3 */
(PID.TID 0000.0001)                 2.045883481718707E+05,      /* I =  4 */
(PID.TID 0000.0001)                 2.218350349844185E+05,      /* I =  5 */
(PID.TID 0000.0001)                 2.364352994647058E+05,      /* I =  6 */
(PID.TID 0000.0001)                 2.490022710862746E+05,      /* I =  7 */
(PID.TID 0000.0001)                 2.598919724358304E+05,      /* I =  8 */
(PID.TID 0000.0001)                 2.693210245495156E+05,      /* I =  9 */
(PID.TID 0000.0001)                 2.774243179696503E+05,      /* I = 10 */
(PID.TID 0000.0001)                 2.842862532064524E+05,      /* I = 11 */
(PID.TID 0000.0001)                 2.899590699694043E+05,      /* I = 12 */
(PID.TID 0000.0001)                 2.944742915095688E+05,      /* I = 13 */
(PID.TID 0000.0001)                 2.978501920522794E+05,      /* I = 14 */
(PID.TID 0000.0001)                 3.000967749619962E+05,      /* I = 15 */
(PID.TID 0000.0001)     2 @  3.012190981969055E+05,             /* I = 16: 17 */
(PID.TID 0000.0001)                 3.000967749619962E+05,      /* I = 18 */
(PID.TID 0000.0001)                 2.978501920522794E+05,      /* I = 19 */
(PID.TID 0000.0001)                 2.944742915095688E+05,      /* I = 20 */
(PID.TID 0000.0001)                 2.899590699694043E+05,      /* I = 21 */
(PID.TID 0000.0001)                 2.842862532064524E+05,      /* I = 22 */
(PID.TID 0000.0001)                 2.774243179696503E+05,      /* I = 23 */
(PID.TID 0000.0001)                 2.693210245495156E+05,      /* I = 24 */
(PID.TID 0000.0001)                 2.598919724358304E+05,      /* I = 25 */
(PID.TID 0000.0001)                 2.490022710862746E+05,      /* I = 26 */
(PID.TID 0000.0001)                 2.364352994647058E+05,      /* I = 27 */
(PID.TID 0000.0001)                 2.218350349844185E+05,      /* I = 28 */
(PID.TID 0000.0001)                 2.045883481718707E+05,      /* I = 29 */
(PID.TID 0000.0001)                 1.835530058121492E+05,      /* I = 30 */
(PID.TID 0000.0001)                 1.563594089971120E+05,      /* I = 31 */
(PID.TID 0000.0001)     2 @  1.202082051331828E+05,             /* I = 32: 33 */
(PID.TID 0000.0001)                 1.563594089971120E+05,      /* I = 34 */
(PID.TID 0000.0001)                 1.835530058121492E+05,      /* I = 35 */
(PID.TID 0000.0001)                 2.045883481718707E+05,      /* I = 36 */
(PID.TID 0000.0001)                 2.218350349844185E+05,      /* I = 37 */
(PID.TID 0000.0001)                 2.364352994647058E+05,      /* I = 38 */
(PID.TID 0000.0001)                 2.490022710862746E+05,      /* I = 39 */
(PID.TID 0000.0001)                 2.598919724358304E+05,      /* I = 40 */
(PID.TID 0000.0001)                 2.693210245495156E+05,      /* I = 41 */
(PID.TID 0000.0001)                 2.774243179696503E+05,      /* I = 42 */
(PID.TID 0000.0001)                 2.842862532064524E+05,      /* I = 43 */
(PID.TID 0000.0001)                 2.899590699694043E+05,      /* I = 44 */
(PID.TID 0000.0001)                 2.944742915095688E+05,      /* I = 45 */
(PID.TID 0000.0001)                 2.978501920522794E+05,      /* I = 46 */
(PID.TID 0000.0001)                 3.000967749619962E+05,      /* I = 47 */
(PID.TID 0000.0001)     2 @  3.012190981969055E+05,             /* I = 48: 49 */
(PID.TID 0000.0001)                 3.000967749619962E+05,      /* I = 50 */
(PID.TID 0000.0001)                 2.978501920522794E+05,      /* I = 51 */
(PID.TID 0000.0001)                 2.944742915095688E+05,      /* I = 52 */
(PID.TID 0000.0001)                 2.899590699694043E+05,      /* I = 53 */
(PID.TID 0000.0001)                 2.842862532064524E+05,      /* I = 54 */
(PID.TID 0000.0001)                 2.774243179696503E+05,      /* I = 55 */
(PID.TID 0000.0001)                 2.693210245495156E+05,      /* I = 56 */
(PID.TID 0000.0001)                 2.598919724358304E+05,      /* I = 57 */
(PID.TID 0000.0001)                 2.490022710862746E+05,      /* I = 58 */
(PID.TID 0000.0001)                 2.364352994647058E+05,      /* I = 59 */
(PID.TID 0000.0001)                 2.218350349844185E+05,      /* I = 60 */
(PID.TID 0000.0001)                 2.045883481718707E+05,      /* I = 61 */
(PID.TID 0000.0001)                 1.835530058121492E+05,      /* I = 62 */
(PID.TID 0000.0001)                 1.563594089971120E+05,      /* I = 63 */
(PID.TID 0000.0001)     2 @  1.202082051331828E+05,             /* I = 64: 65 */
(PID.TID 0000.0001)                 1.563594089971120E+05,      /* I = 66 */
(PID.TID 0000.0001)                 1.835530058121492E+05,      /* I = 67 */
(PID.TID 0000.0001)                 2.045883481718707E+05,      /* I = 68 */
(PID.TID 0000.0001)                 2.218350349844185E+05,      /* I = 69 */
(PID.TID 0000.0001)                 2.364352994647058E+05,      /* I = 70 */
(PID.TID 0000.0001)                 2.490022710862746E+05,      /* I = 71 */
(PID.TID 0000.0001)                 2.598919724358304E+05,      /* I = 72 */
(PID.TID 0000.0001)                 2.693210245495156E+05,      /* I = 73 */
(PID.TID 0000.0001)                 2.774243179696503E+05,      /* I = 74 */
(PID.TID 0000.0001)                 2.842862532064524E+05,      /* I = 75 */
(PID.TID 0000.0001)                 2.899590699694043E+05,      /* I = 76 */
(PID.TID 0000.0001)                 2.944742915095688E+05,      /* I = 77 */
(PID.TID 0000.0001)                 2.978501920522794E+05,      /* I = 78 */
(PID.TID 0000.0001)                 3.000967749619962E+05,      /* I = 79 */
(PID.TID 0000.0001)     2 @  3.012190981969055E+05,             /* I = 80: 81 */
(PID.TID 0000.0001)                 3.000967749619962E+05,      /* I = 82 */
(PID.TID 0000.0001)                 2.978501920522794E+05,      /* I = 83 */
(PID.TID 0000.0001)                 2.944742915095688E+05,      /* I = 84 */
(PID.TID 0000.0001)                 2.899590699694043E+05,      /* I = 85 */
(PID.TID 0000.0001)                 2.842862532064524E+05,      /* I = 86 */
(PID.TID 0000.0001)                 2.774243179696503E+05,      /* I = 87 */
(PID.TID 0000.0001)                 2.693210245495156E+05,      /* I = 88 */
(PID.TID 0000.0001)                 2.598919724358304E+05,      /* I = 89 */
(PID.TID 0000.0001)                 2.490022710862746E+05,      /* I = 90 */
(PID.TID 0000.0001)                 2.364352994647058E+05,      /* I = 91 */
(PID.TID 0000.0001)                 2.218350349844185E+05,      /* I = 92 */
(PID.TID 0000.0001)                 2.045883481718707E+05,      /* I = 93 */
(PID.TID 0000.0001)                 1.835530058121492E+05,      /* I = 94 */
(PID.TID 0000.0001)                 1.563594089971120E+05,      /* I = 95 */
(PID.TID 0000.0001)     2 @  1.202082051331828E+05,             /* I = 96: 97 */
(PID.TID 0000.0001)                 1.563594089971120E+05,      /* I = 98 */
(PID.TID 0000.0001)                 1.835530058121492E+05,      /* I = 99 */
(PID.TID 0000.0001)                 2.045883481718707E+05,      /* I =100 */
(PID.TID 0000.0001)                 2.218350349844185E+05,      /* I =101 */
(PID.TID 0000.0001)                 2.364352994647058E+05,      /* I =102 */
(PID.TID 0000.0001)                 2.490022710862746E+05,      /* I =103 */
(PID.TID 0000.0001)                 2.598919724358304E+05,      /* I =104 */
(PID.TID 0000.0001)                 2.693210245495156E+05,      /* I =105 */
(PID.TID 0000.0001)                 2.774243179696503E+05,      /* I =106 */
(PID.TID 0000.0001)                 2.842862532064524E+05,      /* I =107 */
(PID.TID 0000.0001)                 2.899590699694043E+05,      /* I =108 */
(PID.TID 0000.0001)                 2.944742915095688E+05,      /* I =109 */
(PID.TID 0000.0001)                 2.978501920522794E+05,      /* I =110 */
(PID.TID 0000.0001)                 3.000967749619962E+05,      /* I =111 */
(PID.TID 0000.0001)     2 @  3.012190981969055E+05,             /* I =112:113 */
(PID.TID 0000.0001)                 3.000967749619962E+05,      /* I =114 */
(PID.TID 0000.0001)                 2.978501920522794E+05,      /* I =115 */
(PID.TID 0000.0001)                 2.944742915095688E+05,      /* I =116 */
(PID.TID 0000.0001)                 2.899590699694043E+05,      /* I =117 */
(PID.TID 0000.0001)                 2.842862532064524E+05,      /* I =118 */
(PID.TID 0000.0001)                 2.774243179696503E+05,      /* I =119 */
(PID.TID 0000.0001)                 2.693210245495156E+05,      /* I =120 */
(PID.TID 0000.0001)                 2.598919724358304E+05,      /* I =121 */
(PID.TID 0000.0001)                 2.490022710862746E+05,      /* I =122 */
(PID.TID 0000.0001)                 2.364352994647058E+05,      /* I =123 */
(PID.TID 0000.0001)                 2.218350349844185E+05,      /* I =124 */
(PID.TID 0000.0001)                 2.045883481718707E+05,      /* I =125 */
(PID.TID 0000.0001)                 1.835530058121492E+05,      /* I =126 */
(PID.TID 0000.0001)                 1.563594089971120E+05,      /* I =127 */
(PID.TID 0000.0001)     2 @  1.202082051331828E+05,             /* I =128:129 */
(PID.TID 0000.0001)                 1.563594089971120E+05,      /* I =130 */
(PID.TID 0000.0001)                 1.835530058121492E+05,      /* I =131 */
(PID.TID 0000.0001)                 2.045883481718707E+05,      /* I =132 */
(PID.TID 0000.0001)                 2.218350349844185E+05,      /* I =133 */
(PID.TID 0000.0001)                 2.364352994647058E+05,      /* I =134 */
(PID.TID 0000.0001)                 2.490022710862746E+05,      /* I =135 */
(PID.TID 0000.0001)                 2.598919724358304E+05,      /* I =136 */
(PID.TID 0000.0001)                 2.693210245495156E+05,      /* I =137 */
(PID.TID 0000.0001)                 2.774243179696503E+05,      /* I =138 */
(PID.TID 0000.0001)                 2.842862532064524E+05,      /* I =139 */
(PID.TID 0000.0001)                 2.899590699694043E+05,      /* I =140 */
(PID.TID 0000.0001)                 2.944742915095688E+05,      /* I =141 */
(PID.TID 0000.0001)                 2.978501920522794E+05,      /* I =142 */
(PID.TID 0000.0001)                 3.000967749619962E+05,      /* I =143 */
(PID.TID 0000.0001)     2 @  3.012190981969055E+05,             /* I =144:145 */
(PID.TID 0000.0001)                 3.000967749619962E+05,      /* I =146 */
(PID.TID 0000.0001)                 2.978501920522794E+05,      /* I =147 */
(PID.TID 0000.0001)                 2.944742915095688E+05,      /* I =148 */
(PID.TID 0000.0001)                 2.899590699694043E+05,      /* I =149 */
(PID.TID 0000.0001)                 2.842862532064524E+05,      /* I =150 */
(PID.TID 0000.0001)                 2.774243179696503E+05,      /* I =151 */
(PID.TID 0000.0001)                 2.693210245495156E+05,      /* I =152 */
(PID.TID 0000.0001)                 2.598919724358304E+05,      /* I =153 */
(PID.TID 0000.0001)                 2.490022710862746E+05,      /* I =154 */
(PID.TID 0000.0001)                 2.364352994647058E+05,      /* I =155 */
(PID.TID 0000.0001)                 2.218350349844185E+05,      /* I =156 */
(PID.TID 0000.0001)                 2.045883481718707E+05,      /* I =157 */
(PID.TID 0000.0001)                 1.835530058121492E+05,      /* I =158 */
(PID.TID 0000.0001)                 1.563594089971120E+05,      /* I =159 */
(PID.TID 0000.0001)     2 @  1.202082051331828E+05,             /* I =160:161 */
(PID.TID 0000.0001)                 1.563594089971120E+05,      /* I =162 */
(PID.TID 0000.0001)                 1.835530058121492E+05,      /* I =163 */
(PID.TID 0000.0001)                 2.045883481718707E+05,      /* I =164 */
(PID.TID 0000.0001)                 2.218350349844185E+05,      /* I =165 */
(PID.TID 0000.0001)                 2.364352994647058E+05,      /* I =166 */
(PID.TID 0000.0001)                 2.490022710862746E+05,      /* I =167 */
(PID.TID 0000.0001)                 2.598919724358304E+05,      /* I =168 */
(PID.TID 0000.0001)                 2.693210245495156E+05,      /* I =169 */
(PID.TID 0000.0001)                 2.774243179696503E+05,      /* I =170 */
(PID.TID 0000.0001)                 2.842862532064524E+05,      /* I =171 */
(PID.TID 0000.0001)                 2.899590699694043E+05,      /* I =172 */
(PID.TID 0000.0001)                 2.944742915095688E+05,      /* I =173 */
(PID.TID 0000.0001)                 2.978501920522794E+05,      /* I =174 */
(PID.TID 0000.0001)                 3.000967749619962E+05,      /* I =175 */
(PID.TID 0000.0001)     2 @  3.012190981969055E+05,             /* I =176:177 */
(PID.TID 0000.0001)                 3.000967749619962E+05,      /* I =178 */
(PID.TID 0000.0001)                 2.978501920522794E+05,      /* I =179 */
(PID.TID 0000.0001)                 2.944742915095688E+05,      /* I =180 */
(PID.TID 0000.0001)                 2.899590699694043E+05,      /* I =181 */
(PID.TID 0000.0001)                 2.842862532064524E+05,      /* I =182 */
(PID.TID 0000.0001)                 2.774243179696503E+05,      /* I =183 */
(PID.TID 0000.0001)                 2.693210245495156E+05,      /* I =184 */
(PID.TID 0000.0001)                 2.598919724358304E+05,      /* I =185 */
(PID.TID 0000.0001)                 2.490022710862746E+05,      /* I =186 */
(PID.TID 0000.0001)                 2.364352994647058E+05,      /* I =187 */
(PID.TID 0000.0001)                 2.218350349844185E+05,      /* I =188 */
(PID.TID 0000.0001)                 2.045883481718707E+05,      /* I =189 */
(PID.TID 0000.0001)                 1.835530058121492E+05,      /* I =190 */
(PID.TID 0000.0001)                 1.563594089971120E+05,      /* I =191 */
(PID.TID 0000.0001)                 1.202082051331828E+05       /* I =192 */
(PID.TID 0000.0001)     ;
(PID.TID 0000.0001) dxF =  /* dxF(1,:,1,:) ( m - cartesian, degrees - spherical ) */
(PID.TID 0000.0001)                 1.202082051331828E+05,      /* J =  1 */
(PID.TID 0000.0001)                 1.572908084538706E+05,      /* J =  2 */
(PID.TID 0000.0001)                 1.840412227747703E+05,      /* J =  3 */
(PID.TID 0000.0001)                 2.048868197919576E+05,      /* J =  4 */
(PID.TID 0000.0001)                 2.220405216043041E+05,      /* J =  5 */
(PID.TID 0000.0001)                 2.365892017348392E+05,      /* J =  6 */
(PID.TID 0000.0001)                 2.491250781852558E+05,      /* J =  7 */
(PID.TID 0000.0001)                 2.599949918261881E+05,      /* J =  8 */
(PID.TID 0000.0001)                 2.694110134598581E+05,      /* J =  9 */
(PID.TID 0000.0001)                 2.775055554645015E+05,      /* J = 10 */
(PID.TID 0000.0001)                 2.843615645344775E+05,      /* J = 11 */
(PID.TID 0000.0001)                 2.900303768613599E+05,      /* J = 12 */
(PID.TID 0000.0001)                 2.945429307892709E+05,      /* J = 13 */
(PID.TID 0000.0001)                 2.979171143158405E+05,      /* J = 14 */
(PID.TID 0000.0001)                 3.001626787528886E+05,      /* J = 15 */
(PID.TID 0000.0001)     2 @  3.012844832048790E+05,             /* J = 16: 17 */
(PID.TID 0000.0001)                 3.001626787528886E+05,      /* J = 18 */
(PID.TID 0000.0001)                 2.979171143158405E+05,      /* J = 19 */
(PID.TID 0000.0001)                 2.945429307892709E+05,      /* J = 20 */
(PID.TID 0000.0001)                 2.900303768613599E+05,      /* J = 21 */
(PID.TID 0000.0001)                 2.843615645344775E+05,      /* J = 22 */
(PID.TID 0000.0001)                 2.775055554645015E+05,      /* J = 23 */
(PID.TID 0000.0001)                 2.694110134598581E+05,      /* J = 24 */
(PID.TID 0000.0001)                 2.599949918261881E+05,      /* J = 25 */
(PID.TID 0000.0001)                 2.491250781852558E+05,      /* J = 26 */
(PID.TID 0000.0001)                 2.365892017348392E+05,      /* J = 27 */
(PID.TID 0000.0001)                 2.220405216043041E+05,      /* J = 28 */
(PID.TID 0000.0001)                 2.048868197919576E+05,      /* J = 29 */
(PID.TID 0000.0001)                 1.840412227747703E+05,      /* J = 30 */
(PID.TID 0000.0001)                 1.572908084538706E+05,      /* J = 31 */
(PID.TID 0000.0001)                 1.202082051331828E+05       /* J = 32 */
(PID.TID 0000.0001)     ;
(PID.TID 0000.0001) dyF =  /* dyF(:,1,:,1) ( m - cartesian, degrees - spherical ) */
(PID.TID 0000.0001)                 1.202082051331828E+05,      /* I =  1 */
(PID.TID 0000.0001)                 1.572908084538706E+05,      /* I =  2 */
(PID.TID 0000.0001)                 1.840412227747703E+05,      /* I =  3 */
(PID.TID 0000.0001)                 2.048868197919576E+05,      /* I =  4 */
(PID.TID 0000.0001)                 2.220405216043041E+05,      /* I =  5 */
(PID.TID 0000.0001)                 2.365892017348392E+05,      /* I =  6 */
(PID.TID 0000.0001)                 2.491250781852558E+05,      /* I =  7 */
(PID.TID 0000.0001)                 2.599949918261881E+05,      /* I =  8 */
(PID.TID 0000.0001)                 2.694110134598581E+05,      /* I =  9 */
(PID.TID 0000.0001)                 2.775055554645015E+05,      /* I = 10 */
(PID.TID 0000.0001)                 2.843615645344775E+05,      /* I = 11 */
(PID.TID 0000.0001)                 2.900303768613599E+05,      /* I = 12 */
(PID.TID 0000.0001)                 2.945429307892709E+05,      /* I = 13 */
(PID.TID 0000.0001)                 2.979171143158405E+05,      /* I = 14 */
(PID.TID 0000.0001)                 3.001626787528886E+05,      /* I = 15 */
(PID.TID 0000.0001)     2 @  3.012844832048790E+05,             /* I = 16: 17 */
(PID.TID 0000.0001)                 3.001626787528886E+05,      /* I = 18 */
(PID.TID 0000.0001)                 2.979171143158405E+05,      /* I = 19 */
(PID.TID 0000.0001)                 2.945429307892709E+05,      /* I = 20 */
(PID.TID 0000.0001)                 2.900303768613599E+05,      /* I = 21 */
(PID.TID 0000.0001)                 2.843615645344775E+05,      /* I = 22 */
(PID.TID 0000.0001)                 2.775055554645015E+05,      /* I = 23 */
(PID.TID 0000.0001)                 2.694110134598581E+05,      /* I = 24 */
(PID.TID 0000.0001)                 2.599949918261881E+05,      /* I = 25 */
(PID.TID 0000.0001)                 2.491250781852558E+05,      /* I = 26 */
(PID.TID 0000.0001)                 2.365892017348392E+05,      /* I = 27 */
(PID.TID 0000.0001)                 2.220405216043041E+05,      /* I = 28 */
(PID.TID 0000.0001)                 2.048868197919576E+05,      /* I = 29 */
(PID.TID 0000.0001)                 1.840412227747703E+05,      /* I = 30 */
(PID.TID 0000.0001)                 1.572908084538706E+05,      /* I = 31 */
(PID.TID 0000.0001)     2 @  1.202082051331828E+05,             /* I = 32: 33 */
(PID.TID 0000.0001)                 1.572908084538706E+05,      /* I = 34 */
(PID.TID 0000.0001)                 1.840412227747703E+05,      /* I = 35 */
(PID.TID 0000.0001)                 2.048868197919576E+05,      /* I = 36 */
(PID.TID 0000.0001)                 2.220405216043041E+05,      /* I = 37 */
(PID.TID 0000.0001)                 2.365892017348392E+05,      /* I = 38 */
(PID.TID 0000.0001)                 2.491250781852558E+05,      /* I = 39 */
(PID.TID 0000.0001)                 2.599949918261881E+05,      /* I = 40 */
(PID.TID 0000.0001)                 2.694110134598581E+05,      /* I = 41 */
(PID.TID 0000.0001)                 2.775055554645015E+05,      /* I = 42 */
(PID.TID 0000.0001)                 2.843615645344775E+05,      /* I = 43 */
(PID.TID 0000.0001)                 2.900303768613599E+05,      /* I = 44 */
(PID.TID 0000.0001)                 2.945429307892709E+05,      /* I = 45 */
(PID.TID 0000.0001)                 2.979171143158405E+05,      /* I = 46 */
(PID.TID 0000.0001)                 3.001626787528886E+05,      /* I = 47 */
(PID.TID 0000.0001)     2 @  3.012844832048790E+05,             /* I = 48: 49 */
(PID.TID 0000.0001)                 3.001626787528886E+05,      /* I = 50 */
(PID.TID 0000.0001)                 2.979171143158405E+05,      /* I = 51 */
(PID.TID 0000.0001)                 2.945429307892709E+05,      /* I = 52 */
(PID.TID 0000.0001)                 2.900303768613599E+05,      /* I = 53 */
(PID.TID 0000.0001)                 2.843615645344775E+05,      /* I = 54 */
(PID.TID 0000.0001)                 2.775055554645015E+05,      /* I = 55 */
(PID.TID 0000.0001)                 2.694110134598581E+05,      /* I = 56 */
(PID.TID 0000.0001)                 2.599949918261881E+05,      /* I = 57 */
(PID.TID 0000.0001)                 2.491250781852558E+05,      /* I = 58 */
(PID.TID 0000.0001)                 2.365892017348392E+05,      /* I = 59 */
(PID.TID 0000.0001)                 2.220405216043041E+05,      /* I = 60 */
(PID.TID 0000.0001)                 2.048868197919576E+05,      /* I = 61 */
(PID.TID 0000.0001)                 1.840412227747703E+05,      /* I = 62 */
(PID.TID 0000.0001)                 1.572908084538706E+05,      /* I = 63 */
(PID.TID 0000.0001)     2 @  1.202082051331828E+05,             /* I = 64: 65 */
(PID.TID 0000.0001)                 1.572908084538706E+05,      /* I = 66 */
(PID.TID 0000.0001)                 1.840412227747703E+05,      /* I = 67 */
(PID.TID 0000.0001)                 2.048868197919576E+05,      /* I = 68 */
(PID.TID 0000.0001)                 2.220405216043041E+05,      /* I = 69 */
(PID.TID 0000.0001)                 2.365892017348392E+05,      /* I = 70 */
(PID.TID 0000.0001)                 2.491250781852558E+05,      /* I = 71 */
(PID.TID 0000.0001)                 2.599949918261881E+05,      /* I = 72 */
(PID.TID 0000.0001)                 2.694110134598581E+05,      /* I = 73 */
(PID.TID 0000.0001)                 2.775055554645015E+05,      /* I = 74 */
(PID.TID 0000.0001)                 2.843615645344775E+05,      /* I = 75 */
(PID.TID 0000.0001)                 2.900303768613599E+05,      /* I = 76 */
(PID.TID 0000.0001)                 2.945429307892709E+05,      /* I = 77 */
(PID.TID 0000.0001)                 2.979171143158405E+05,      /* I = 78 */
(PID.TID 0000.0001)                 3.001626787528886E+05,      /* I = 79 */
(PID.TID 0000.0001)     2 @  3.012844832048790E+05,             /* I = 80: 81 */
(PID.TID 0000.0001)                 3.001626787528886E+05,      /* I = 82 */
(PID.TID 0000.0001)                 2.979171143158405E+05,      /* I = 83 */
(PID.TID 0000.0001)                 2.945429307892709E+05,      /* I = 84 */
(PID.TID 0000.0001)                 2.900303768613599E+05,      /* I = 85 */
(PID.TID 0000.0001)                 2.843615645344775E+05,      /* I = 86 */
(PID.TID 0000.0001)                 2.775055554645015E+05,      /* I = 87 */
(PID.TID 0000.0001)                 2.694110134598581E+05,      /* I = 88 */
(PID.TID 0000.0001)                 2.599949918261881E+05,      /* I = 89 */
(PID.TID 0000.0001)                 2.491250781852558E+05,      /* I = 90 */
(PID.TID 0000.0001)                 2.365892017348392E+05,      /* I = 91 */
(PID.TID 0000.0001)                 2.220405216043041E+05,      /* I = 92 */
(PID.TID 0000.0001)                 2.048868197919576E+05,      /* I = 93 */
(PID.TID 0000.0001)                 1.840412227747703E+05,      /* I = 94 */
(PID.TID 0000.0001)                 1.572908084538706E+05,      /* I = 95 */
(PID.TID 0000.0001)     2 @  1.202082051331828E+05,             /* I = 96: 97 */
(PID.TID 0000.0001)                 1.572908084538706E+05,      /* I = 98 */
(PID.TID 0000.0001)                 1.840412227747703E+05,      /* I = 99 */
(PID.TID 0000.0001)                 2.048868197919576E+05,      /* I =100 */
(PID.TID 0000.0001)                 2.220405216043041E+05,      /* I =101 */
(PID.TID 0000.0001)                 2.365892017348392E+05,      /* I =102 */
(PID.TID 0000.0001)                 2.491250781852558E+05,      /* I =103 */
(PID.TID 0000.0001)                 2.599949918261881E+05,      /* I =104 */
(PID.TID 0000.0001)                 2.694110134598581E+05,      /* I =105 */
(PID.TID 0000.0001)                 2.775055554645015E+05,      /* I =106 */
(PID.TID 0000.0001)                 2.843615645344775E+05,      /* I =107 */
(PID.TID 0000.0001)                 2.900303768613599E+05,      /* I =108 */
(PID.TID 0000.0001)                 2.945429307892709E+05,      /* I =109 */
(PID.TID 0000.0001)                 2.979171143158405E+05,      /* I =110 */
(PID.TID 0000.0001)                 3.001626787528886E+05,      /* I =111 */
(PID.TID 0000.0001)     2 @  3.012844832048790E+05,             /* I =112:113 */
(PID.TID 0000.0001)                 3.001626787528886E+05,      /* I =114 */
(PID.TID 0000.0001)                 2.979171143158405E+05,      /* I =115 */
(PID.TID 0000.0001)                 2.945429307892709E+05,      /* I =116 */
(PID.TID 0000.0001)                 2.900303768613599E+05,      /* I =117 */
(PID.TID 0000.0001)                 2.843615645344775E+05,      /* I =118 */
(PID.TID 0000.0001)                 2.775055554645015E+05,      /* I =119 */
(PID.TID 0000.0001)                 2.694110134598581E+05,      /* I =120 */
(PID.TID 0000.0001)                 2.599949918261881E+05,      /* I =121 */
(PID.TID 0000.0001)                 2.491250781852558E+05,      /* I =122 */
(PID.TID 0000.0001)                 2.365892017348392E+05,      /* I =123 */
(PID.TID 0000.0001)                 2.220405216043041E+05,      /* I =124 */
(PID.TID 0000.0001)                 2.048868197919576E+05,      /* I =125 */
(PID.TID 0000.0001)                 1.840412227747703E+05,      /* I =126 */
(PID.TID 0000.0001)                 1.572908084538706E+05,      /* I =127 */
(PID.TID 0000.0001)     2 @  1.202082051331828E+05,             /* I =128:129 */
(PID.TID 0000.0001)                 1.572908084538706E+05,      /* I =130 */
(PID.TID 0000.0001)                 1.840412227747703E+05,      /* I =131 */
(PID.TID 0000.0001)                 2.048868197919576E+05,      /* I =132 */
(PID.TID 0000.0001)                 2.220405216043041E+05,      /* I =133 */
(PID.TID 0000.0001)                 2.365892017348392E+05,      /* I =134 */
(PID.TID 0000.0001)                 2.491250781852558E+05,      /* I =135 */
(PID.TID 0000.0001)                 2.599949918261881E+05,      /* I =136 */
(PID.TID 0000.0001)                 2.694110134598581E+05,      /* I =137 */
(PID.TID 0000.0001)                 2.775055554645015E+05,      /* I =138 */
(PID.TID 0000.0001)                 2.843615645344775E+05,      /* I =139 */
(PID.TID 0000.0001)                 2.900303768613599E+05,      /* I =140 */
(PID.TID 0000.0001)                 2.945429307892709E+05,      /* I =141 */
(PID.TID 0000.0001)                 2.979171143158405E+05,      /* I =142 */
(PID.TID 0000.0001)                 3.001626787528886E+05,      /* I =143 */
(PID.TID 0000.0001)     2 @  3.012844832048790E+05,             /* I =144:145 */
(PID.TID 0000.0001)                 3.001626787528886E+05,      /* I =146 */
(PID.TID 0000.0001)                 2.979171143158405E+05,      /* I =147 */
(PID.TID 0000.0001)                 2.945429307892709E+05,      /* I =148 */
(PID.TID 0000.0001)                 2.900303768613599E+05,      /* I =149 */
(PID.TID 0000.0001)                 2.843615645344775E+05,      /* I =150 */
(PID.TID 0000.0001)                 2.775055554645015E+05,      /* I =151 */
(PID.TID 0000.0001)                 2.694110134598581E+05,      /* I =152 */
(PID.TID 0000.0001)                 2.599949918261881E+05,      /* I =153 */
(PID.TID 0000.0001)                 2.491250781852558E+05,      /* I =154 */
(PID.TID 0000.0001)                 2.365892017348392E+05,      /* I =155 */
(PID.TID 0000.0001)                 2.220405216043041E+05,      /* I =156 */
(PID.TID 0000.0001)                 2.048868197919576E+05,      /* I =157 */
(PID.TID 0000.0001)                 1.840412227747703E+05,      /* I =158 */
(PID.TID 0000.0001)                 1.572908084538706E+05,      /* I =159 */
(PID.TID 0000.0001)     2 @  1.202082051331828E+05,             /* I =160:161 */
(PID.TID 0000.0001)                 1.572908084538706E+05,      /* I =162 */
(PID.TID 0000.0001)                 1.840412227747703E+05,      /* I =163 */
(PID.TID 0000.0001)                 2.048868197919576E+05,      /* I =164 */
(PID.TID 0000.0001)                 2.220405216043041E+05,      /* I =165 */
(PID.TID 0000.0001)                 2.365892017348392E+05,      /* I =166 */
(PID.TID 0000.0001)                 2.491250781852558E+05,      /* I =167 */
(PID.TID 0000.0001)                 2.599949918261881E+05,      /* I =168 */
(PID.TID 0000.0001)                 2.694110134598581E+05,      /* I =169 */
(PID.TID 0000.0001)                 2.775055554645015E+05,      /* I =170 */
(PID.TID 0000.0001)                 2.843615645344775E+05,      /* I =171 */
(PID.TID 0000.0001)                 2.900303768613599E+05,      /* I =172 */
(PID.TID 0000.0001)                 2.945429307892709E+05,      /* I =173 */
(PID.TID 0000.0001)                 2.979171143158405E+05,      /* I =174 */
(PID.TID 0000.0001)                 3.001626787528886E+05,      /* I =175 */
(PID.TID 0000.0001)     2 @  3.012844832048790E+05,             /* I =176:177 */
(PID.TID 0000.0001)                 3.001626787528886E+05,      /* I =178 */
(PID.TID 0000.0001)                 2.979171143158405E+05,      /* I =179 */
(PID.TID 0000.0001)                 2.945429307892709E+05,      /* I =180 */
(PID.TID 0000.0001)                 2.900303768613599E+05,      /* I =181 */
(PID.TID 0000.0001)                 2.843615645344775E+05,      /* I =182 */
(PID.TID 0000.0001)                 2.775055554645015E+05,      /* I =183 */
(PID.TID 0000.0001)                 2.694110134598581E+05,      /* I =184 */
(PID.TID 0000.0001)                 2.599949918261881E+05,      /* I =185 */
(PID.TID 0000.0001)                 2.491250781852558E+05,      /* I =186 */
(PID.TID 0000.0001)                 2.365892017348392E+05,      /* I =187 */
(PID.TID 0000.0001)                 2.220405216043041E+05,      /* I =188 */
(PID.TID 0000.0001)                 2.048868197919576E+05,      /* I =189 */
(PID.TID 0000.0001)                 1.840412227747703E+05,      /* I =190 */
(PID.TID 0000.0001)                 1.572908084538706E+05,      /* I =191 */
(PID.TID 0000.0001)                 1.202082051331828E+05       /* I =192 */
(PID.TID 0000.0001)     ;
(PID.TID 0000.0001) dyF =  /* dyF(1,:,1,:) ( m - cartesian, degrees - spherical ) */
(PID.TID 0000.0001)                 1.202082051331828E+05,      /* J =  1 */
(PID.TID 0000.0001)                 1.563594089971120E+05,      /* J =  2 */
(PID.TID 0000.0001)                 1.835530058121492E+05,      /* J =  3 */
(PID.TID 0000.0001)                 2.045883481718707E+05,      /* J =  4 */
(PID.TID 0000.0001)                 2.218350349844185E+05,      /* J =  5 */
(PID.TID 0000.0001)                 2.364352994647058E+05,      /* J =  6 */
(PID.TID 0000.0001)                 2.490022710862746E+05,      /* J =  7 */
(PID.TID 0000.0001)                 2.598919724358304E+05,      /* J =  8 */
(PID.TID 0000.0001)                 2.693210245495156E+05,      /* J =  9 */
(PID.TID 0000.0001)                 2.774243179696503E+05,      /* J = 10 */
(PID.TID 0000.0001)                 2.842862532064524E+05,      /* J = 11 */
(PID.TID 0000.0001)                 2.899590699694043E+05,      /* J = 12 */
(PID.TID 0000.0001)                 2.944742915095688E+05,      /* J = 13 */
(PID.TID 0000.0001)                 2.978501920522794E+05,      /* J = 14 */
(PID.TID 0000.0001)                 3.000967749619962E+05,      /* J = 15 */
(PID.TID 0000.0001)     2 @  3.012190981969055E+05,             /* J = 16: 17 */
(PID.TID 0000.0001)                 3.000967749619962E+05,      /* J = 18 */
(PID.TID 0000.0001)                 2.978501920522794E+05,      /* J = 19 */
(PID.TID 0000.0001)                 2.944742915095688E+05,      /* J = 20 */
(PID.TID 0000.0001)                 2.899590699694043E+05,      /* J = 21 */
(PID.TID 0000.0001)                 2.842862532064524E+05,      /* J = 22 */
(PID.TID 0000.0001)                 2.774243179696503E+05,      /* J = 23 */
(PID.TID 0000.0001)                 2.693210245495156E+05,      /* J = 24 */
(PID.TID 0000.0001)                 2.598919724358304E+05,      /* J = 25 */
(PID.TID 0000.0001)                 2.490022710862746E+05,      /* J = 26 */
(PID.TID 0000.0001)                 2.364352994647058E+05,      /* J = 27 */
(PID.TID 0000.0001)                 2.218350349844185E+05,      /* J = 28 */
(PID.TID 0000.0001)                 2.045883481718707E+05,      /* J = 29 */
(PID.TID 0000.0001)                 1.835530058121492E+05,      /* J = 30 */
(PID.TID 0000.0001)                 1.563594089971120E+05,      /* J = 31 */
(PID.TID 0000.0001)                 1.202082051331828E+05       /* J = 32 */
(PID.TID 0000.0001)     ;
(PID.TID 0000.0001) dxG =  /* dxG(:,1,:,1) ( m - cartesian, degrees - spherical ) */
(PID.TID 0000.0001)                 1.009837800879055E+05,      /* I =  1 */
(PID.TID 0000.0001)                 1.534505834330338E+05,      /* I =  2 */
(PID.TID 0000.0001)                 1.823321598773926E+05,      /* I =  3 */
(PID.TID 0000.0001)                 2.038999045536999E+05,      /* I =  4 */
(PID.TID 0000.0001)                 2.213884732245467E+05,      /* I =  5 */
(PID.TID 0000.0001)                 2.361211699596122E+05,      /* I =  6 */
(PID.TID 0000.0001)                 2.487693460283865E+05,      /* I =  7 */
(PID.TID 0000.0001)                 2.597126963772147E+05,      /* I =  8 */
(PID.TID 0000.0001)                 2.691790288994575E+05,      /* I =  9 */
(PID.TID 0000.0001)                 2.773091043277394E+05,      /* I = 10 */
(PID.TID 0000.0001)                 2.841906470085516E+05,      /* I = 11 */
(PID.TID 0000.0001)                 2.898778860929753E+05,      /* I = 12 */
(PID.TID 0000.0001)                 2.944035815526416E+05,      /* I = 13 */
(PID.TID 0000.0001)                 2.977867909042096E+05,      /* I = 14 */
(PID.TID 0000.0001)                 3.000380090330854E+05,      /* I = 15 */
(PID.TID 0000.0001)     2 @  3.011625828699101E+05,             /* I = 16: 17 */
(PID.TID 0000.0001)                 3.000380090330854E+05,      /* I = 18 */
(PID.TID 0000.0001)                 2.977867909042096E+05,      /* I = 19 */
(PID.TID 0000.0001)                 2.944035815526416E+05,      /* I = 20 */
(PID.TID 0000.0001)                 2.898778860929753E+05,      /* I = 21 */
(PID.TID 0000.0001)                 2.841906470085516E+05,      /* I = 22 */
(PID.TID 0000.0001)                 2.773091043277394E+05,      /* I = 23 */
(PID.TID 0000.0001)                 2.691790288994575E+05,      /* I = 24 */
(PID.TID 0000.0001)                 2.597126963772147E+05,      /* I = 25 */
(PID.TID 0000.0001)                 2.487693460283865E+05,      /* I = 26 */
(PID.TID 0000.0001)                 2.361211699596122E+05,      /* I = 27 */
(PID.TID 0000.0001)                 2.213884732245467E+05,      /* I = 28 */
(PID.TID 0000.0001)                 2.038999045536999E+05,      /* I = 29 */
(PID.TID 0000.0001)                 1.823321598773926E+05,      /* I = 30 */
(PID.TID 0000.0001)                 1.534505834330338E+05,      /* I = 31 */
(PID.TID 0000.0001)     2 @  1.009837800879055E+05,             /* I = 32: 33 */
(PID.TID 0000.0001)                 1.534505834330338E+05,      /* I = 34 */
(PID.TID 0000.0001)                 1.823321598773926E+05,      /* I = 35 */
(PID.TID 0000.0001)                 2.038999045536999E+05,      /* I = 36 */
(PID.TID 0000.0001)                 2.213884732245467E+05,      /* I = 37 */
(PID.TID 0000.0001)                 2.361211699596122E+05,      /* I = 38 */
(PID.TID 0000.0001)                 2.487693460283865E+05,      /* I = 39 */
(PID.TID 0000.0001)                 2.597126963772147E+05,      /* I = 40 */
(PID.TID 0000.0001)                 2.691790288994575E+05,      /* I = 41 */
(PID.TID 0000.0001)                 2.773091043277394E+05,      /* I = 42 */
(PID.TID 0000.0001)                 2.841906470085516E+05,      /* I = 43 */
(PID.TID 0000.0001)                 2.898778860929753E+05,      /* I = 44 */
(PID.TID 0000.0001)                 2.944035815526416E+05,      /* I = 45 */
(PID.TID 0000.0001)                 2.977867909042096E+05,      /* I = 46 */
(PID.TID 0000.0001)                 3.000380090330854E+05,      /* I = 47 */
(PID.TID 0000.0001)     2 @  3.011625828699101E+05,             /* I = 48: 49 */
(PID.TID 0000.0001)                 3.000380090330854E+05,      /* I = 50 */
(PID.TID 0000.0001)                 2.977867909042096E+05,      /* I = 51 */
(PID.TID 0000.0001)                 2.944035815526416E+05,      /* I = 52 */
(PID.TID 0000.0001)                 2.898778860929753E+05,      /* I = 53 */
(PID.TID 0000.0001)                 2.841906470085516E+05,      /* I = 54 */
(PID.TID 0000.0001)                 2.773091043277394E+05,      /* I = 55 */
(PID.TID 0000.0001)                 2.691790288994575E+05,      /* I = 56 */
(PID.TID 0000.0001)                 2.597126963772147E+05,      /* I = 57 */
(PID.TID 0000.0001)                 2.487693460283865E+05,      /* I = 58 */
(PID.TID 0000.0001)                 2.361211699596122E+05,      /* I = 59 */
(PID.TID 0000.0001)                 2.213884732245467E+05,      /* I = 60 */
(PID.TID 0000.0001)                 2.038999045536999E+05,      /* I = 61 */
(PID.TID 0000.0001)                 1.823321598773926E+05,      /* I = 62 */
(PID.TID 0000.0001)                 1.534505834330338E+05,      /* I = 63 */
(PID.TID 0000.0001)     2 @  1.009837800879055E+05,             /* I = 64: 65 */
(PID.TID 0000.0001)                 1.534505834330338E+05,      /* I = 66 */
(PID.TID 0000.0001)                 1.823321598773926E+05,      /* I = 67 */
(PID.TID 0000.0001)                 2.038999045536999E+05,      /* I = 68 */
(PID.TID 0000.0001)                 2.213884732245467E+05,      /* I = 69 */
(PID.TID 0000.0001)                 2.361211699596122E+05,      /* I = 70 */
(PID.TID 0000.0001)                 2.487693460283865E+05,      /* I = 71 */
(PID.TID 0000.0001)                 2.597126963772147E+05,      /* I = 72 */
(PID.TID 0000.0001)                 2.691790288994575E+05,      /* I = 73 */
(PID.TID 0000.0001)                 2.773091043277394E+05,      /* I = 74 */
(PID.TID 0000.0001)                 2.841906470085516E+05,      /* I = 75 */
(PID.TID 0000.0001)                 2.898778860929753E+05,      /* I = 76 */
(PID.TID 0000.0001)                 2.944035815526416E+05,      /* I = 77 */
(PID.TID 0000.0001)                 2.977867909042096E+05,      /* I = 78 */
(PID.TID 0000.0001)                 3.000380090330854E+05,      /* I = 79 */
(PID.TID 0000.0001)     2 @  3.011625828699101E+05,             /* I = 80: 81 */
(PID.TID 0000.0001)                 3.000380090330854E+05,      /* I = 82 */
(PID.TID 0000.0001)                 2.977867909042096E+05,      /* I = 83 */
(PID.TID 0000.0001)                 2.944035815526416E+05,      /* I = 84 */
(PID.TID 0000.0001)                 2.898778860929753E+05,      /* I = 85 */
(PID.TID 0000.0001)                 2.841906470085516E+05,      /* I = 86 */
(PID.TID 0000.0001)                 2.773091043277394E+05,      /* I = 87 */
(PID.TID 0000.0001)                 2.691790288994575E+05,      /* I = 88 */
(PID.TID 0000.0001)                 2.597126963772147E+05,      /* I = 89 */
(PID.TID 0000.0001)                 2.487693460283865E+05,      /* I = 90 */
(PID.TID 0000.0001)                 2.361211699596122E+05,      /* I = 91 */
(PID.TID 0000.0001)                 2.213884732245467E+05,      /* I = 92 */
(PID.TID 0000.0001)                 2.038999045536999E+05,      /* I = 93 */
(PID.TID 0000.0001)                 1.823321598773926E+05,      /* I = 94 */
(PID.TID 0000.0001)                 1.534505834330338E+05,      /* I = 95 */
(PID.TID 0000.0001)     2 @  1.009837800879055E+05,             /* I = 96: 97 */
(PID.TID 0000.0001)                 1.534505834330338E+05,      /* I = 98 */
(PID.TID 0000.0001)                 1.823321598773926E+05,      /* I = 99 */
(PID.TID 0000.0001)                 2.038999045536999E+05,      /* I =100 */
(PID.TID 0000.0001)                 2.213884732245467E+05,      /* I =101 */
(PID.TID 0000.0001)                 2.361211699596122E+05,      /* I =102 */
(PID.TID 0000.0001)                 2.487693460283865E+05,      /* I =103 */
(PID.TID 0000.0001)                 2.597126963772147E+05,      /* I =104 */
(PID.TID 0000.0001)                 2.691790288994575E+05,      /* I =105 */
(PID.TID 0000.0001)                 2.773091043277394E+05,      /* I =106 */
(PID.TID 0000.0001)                 2.841906470085516E+05,      /* I =107 */
(PID.TID 0000.0001)                 2.898778860929753E+05,      /* I =108 */
(PID.TID 0000.0001)                 2.944035815526416E+05,      /* I =109 */
(PID.TID 0000.0001)                 2.977867909042096E+05,      /* I =110 */
(PID.TID 0000.0001)                 3.000380090330854E+05,      /* I =111 */
(PID.TID 0000.0001)     2 @  3.011625828699101E+05,             /* I =112:113 */
(PID.TID 0000.0001)                 3.000380090330854E+05,      /* I =114 */
(PID.TID 0000.0001)                 2.977867909042096E+05,      /* I =115 */
(PID.TID 0000.0001)                 2.944035815526416E+05,      /* I =116 */
(PID.TID 0000.0001)                 2.898778860929753E+05,      /* I =117 */
(PID.TID 0000.0001)                 2.841906470085516E+05,      /* I =118 */
(PID.TID 0000.0001)                 2.773091043277394E+05,      /* I =119 */
(PID.TID 0000.0001)                 2.691790288994575E+05,      /* I =120 */
(PID.TID 0000.0001)                 2.597126963772147E+05,      /* I =121 */
(PID.TID 0000.0001)                 2.487693460283865E+05,      /* I =122 */
(PID.TID 0000.0001)                 2.361211699596122E+05,      /* I =123 */
(PID.TID 0000.0001)                 2.213884732245467E+05,      /* I =124 */
(PID.TID 0000.0001)                 2.038999045536999E+05,      /* I =125 */
(PID.TID 0000.0001)                 1.823321598773926E+05,      /* I =126 */
(PID.TID 0000.0001)                 1.534505834330338E+05,      /* I =127 */
(PID.TID 0000.0001)     2 @  1.009837800879055E+05,             /* I =128:129 */
(PID.TID 0000.0001)                 1.534505834330338E+05,      /* I =130 */
(PID.TID 0000.0001)                 1.823321598773926E+05,      /* I =131 */
(PID.TID 0000.0001)                 2.038999045536999E+05,      /* I =132 */
(PID.TID 0000.0001)                 2.213884732245467E+05,      /* I =133 */
(PID.TID 0000.0001)                 2.361211699596122E+05,      /* I =134 */
(PID.TID 0000.0001)                 2.487693460283865E+05,      /* I =135 */
(PID.TID 0000.0001)                 2.597126963772147E+05,      /* I =136 */
(PID.TID 0000.0001)                 2.691790288994575E+05,      /* I =137 */
(PID.TID 0000.0001)                 2.773091043277394E+05,      /* I =138 */
(PID.TID 0000.0001)                 2.841906470085516E+05,      /* I =139 */
(PID.TID 0000.0001)                 2.898778860929753E+05,      /* I =140 */
(PID.TID 0000.0001)                 2.944035815526416E+05,      /* I =141 */
(PID.TID 0000.0001)                 2.977867909042096E+05,      /* I =142 */
(PID.TID 0000.0001)                 3.000380090330854E+05,      /* I =143 */
(PID.TID 0000.0001)     2 @  3.011625828699101E+05,             /* I =144:145 */
(PID.TID 0000.0001)                 3.000380090330854E+05,      /* I =146 */
(PID.TID 0000.0001)                 2.977867909042096E+05,      /* I =147 */
(PID.TID 0000.0001)                 2.944035815526416E+05,      /* I =148 */
(PID.TID 0000.0001)                 2.898778860929753E+05,      /* I =149 */
(PID.TID 0000.0001)                 2.841906470085516E+05,      /* I =150 */
(PID.TID 0000.0001)                 2.773091043277394E+05,      /* I =151 */
(PID.TID 0000.0001)                 2.691790288994575E+05,      /* I =152 */
(PID.TID 0000.0001)                 2.597126963772147E+05,      /* I =153 */
(PID.TID 0000.0001)                 2.487693460283865E+05,      /* I =154 */
(PID.TID 0000.0001)                 2.361211699596122E+05,      /* I =155 */
(PID.TID 0000.0001)                 2.213884732245467E+05,      /* I =156 */
(PID.TID 0000.0001)                 2.038999045536999E+05,      /* I =157 */
(PID.TID 0000.0001)                 1.823321598773926E+05,      /* I =158 */
(PID.TID 0000.0001)                 1.534505834330338E+05,      /* I =159 */
(PID.TID 0000.0001)     2 @  1.009837800879055E+05,             /* I =160:161 */
(PID.TID 0000.0001)                 1.534505834330338E+05,      /* I =162 */
(PID.TID 0000.0001)                 1.823321598773926E+05,      /* I =163 */
(PID.TID 0000.0001)                 2.038999045536999E+05,      /* I =164 */
(PID.TID 0000.0001)                 2.213884732245467E+05,      /* I =165 */
(PID.TID 0000.0001)                 2.361211699596122E+05,      /* I =166 */
(PID.TID 0000.0001)                 2.487693460283865E+05,      /* I =167 */
(PID.TID 0000.0001)                 2.597126963772147E+05,      /* I =168 */
(PID.TID 0000.0001)                 2.691790288994575E+05,      /* I =169 */
(PID.TID 0000.0001)                 2.773091043277394E+05,      /* I =170 */
(PID.TID 0000.0001)                 2.841906470085516E+05,      /* I =171 */
(PID.TID 0000.0001)                 2.898778860929753E+05,      /* I =172 */
(PID.TID 0000.0001)                 2.944035815526416E+05,      /* I =173 */
(PID.TID 0000.0001)                 2.977867909042096E+05,      /* I =174 */
(PID.TID 0000.0001)                 3.000380090330854E+05,      /* I =175 */
(PID.TID 0000.0001)     2 @  3.011625828699101E+05,             /* I =176:177 */
(PID.TID 0000.0001)                 3.000380090330854E+05,      /* I =178 */
(PID.TID 0000.0001)                 2.977867909042096E+05,      /* I =179 */
(PID.TID 0000.0001)                 2.944035815526416E+05,      /* I =180 */
(PID.TID 0000.0001)                 2.898778860929753E+05,      /* I =181 */
(PID.TID 0000.0001)                 2.841906470085516E+05,      /* I =182 */
(PID.TID 0000.0001)                 2.773091043277394E+05,      /* I =183 */
(PID.TID 0000.0001)                 2.691790288994575E+05,      /* I =184 */
(PID.TID 0000.0001)                 2.597126963772147E+05,      /* I =185 */
(PID.TID 0000.0001)                 2.487693460283865E+05,      /* I =186 */
(PID.TID 0000.0001)                 2.361211699596122E+05,      /* I =187 */
(PID.TID 0000.0001)                 2.213884732245467E+05,      /* I =188 */
(PID.TID 0000.0001)                 2.038999045536999E+05,      /* I =189 */
(PID.TID 0000.0001)                 1.823321598773926E+05,      /* I =190 */
(PID.TID 0000.0001)                 1.534505834330338E+05,      /* I =191 */
(PID.TID 0000.0001)                 1.009837800879055E+05       /* I =192 */
(PID.TID 0000.0001)     ;
(PID.TID 0000.0001) dxG =  /* dxG(1,:,1,:) ( m - cartesian, degrees - spherical ) */
(PID.TID 0000.0001)                 1.009837800879055E+05,      /* J =  1 */
(PID.TID 0000.0001)                 1.403701524205398E+05,      /* J =  2 */
(PID.TID 0000.0001)                 1.716197227386011E+05,      /* J =  3 */
(PID.TID 0000.0001)                 1.950254041626018E+05,      /* J =  4 */
(PID.TID 0000.0001)                 2.138410773065497E+05,      /* J =  5 */
(PID.TID 0000.0001)                 2.295958105911512E+05,      /* J =  6 */
(PID.TID 0000.0001)                 2.430829951739083E+05,      /* J =  7 */
(PID.TID 0000.0001)                 2.547526806712889E+05,      /* J =  8 */
(PID.TID 0000.0001)                 2.648750305193301E+05,      /* J =  9 */
(PID.TID 0000.0001)                 2.736173771018112E+05,      /* J = 10 */
(PID.TID 0000.0001)                 2.810845823202647E+05,      /* J = 11 */
(PID.TID 0000.0001)                 2.873420591008078E+05,      /* J = 12 */
(PID.TID 0000.0001)                 2.924298293668651E+05,      /* J = 13 */
(PID.TID 0000.0001)                 2.963715635865306E+05,      /* J = 14 */
(PID.TID 0000.0001)                 2.991805843171258E+05,      /* J = 15 */
(PID.TID 0000.0001)                 3.008638765647886E+05,      /* J = 16 */
(PID.TID 0000.0001)                 3.014246674484008E+05,      /* J = 17 */
(PID.TID 0000.0001)                 3.008638765647886E+05,      /* J = 18 */
(PID.TID 0000.0001)                 2.991805843171258E+05,      /* J = 19 */
(PID.TID 0000.0001)                 2.963715635865306E+05,      /* J = 20 */
(PID.TID 0000.0001)                 2.924298293668651E+05,      /* J = 21 */
(PID.TID 0000.0001)                 2.873420591008078E+05,      /* J = 22 */
(PID.TID 0000.0001)                 2.810845823202647E+05,      /* J = 23 */
(PID.TID 0000.0001)                 2.736173771018112E+05,      /* J = 24 */
(PID.TID 0000.0001)                 2.648750305193301E+05,      /* J = 25 */
(PID.TID 0000.0001)                 2.547526806712889E+05,      /* J = 26 */
(PID.TID 0000.0001)                 2.430829951739083E+05,      /* J = 27 */
(PID.TID 0000.0001)                 2.295958105911512E+05,      /* J = 28 */
(PID.TID 0000.0001)                 2.138410773065497E+05,      /* J = 29 */
(PID.TID 0000.0001)                 1.950254041626018E+05,      /* J = 30 */
(PID.TID 0000.0001)                 1.716197227386011E+05,      /* J = 31 */
(PID.TID 0000.0001)                 1.403701524205398E+05       /* J = 32 */
(PID.TID 0000.0001)     ;
(PID.TID 0000.0001) dyG =  /* dyG(:,1,:,1) ( m - cartesian, degrees - spherical ) */
(PID.TID 0000.0001)                 1.009837800879055E+05,      /* I =  1 */
(PID.TID 0000.0001)                 1.403701524205398E+05,      /* I =  2 */
(PID.TID 0000.0001)                 1.716197227386011E+05,      /* I =  3 */
(PID.TID 0000.0001)                 1.950254041626018E+05,      /* I =  4 */
(PID.TID 0000.0001)                 2.138410773065497E+05,      /* I =  5 */
(PID.TID 0000.0001)                 2.295958105911512E+05,      /* I =  6 */
(PID.TID 0000.0001)                 2.430829951739083E+05,      /* I =  7 */
(PID.TID 0000.0001)                 2.547526806712889E+05,      /* I =  8 */
(PID.TID 0000.0001)                 2.648750305193301E+05,      /* I =  9 */
(PID.TID 0000.0001)                 2.736173771018112E+05,      /* I = 10 */
(PID.TID 0000.0001)                 2.810845823202647E+05,      /* I = 11 */
(PID.TID 0000.0001)                 2.873420591008078E+05,      /* I = 12 */
(PID.TID 0000.0001)                 2.924298293668651E+05,      /* I = 13 */
(PID.TID 0000.0001)                 2.963715635865306E+05,      /* I = 14 */
(PID.TID 0000.0001)                 2.991805843171258E+05,      /* I = 15 */
(PID.TID 0000.0001)                 3.008638765647886E+05,      /* I = 16 */
(PID.TID 0000.0001)                 3.014246674484008E+05,      /* I = 17 */
(PID.TID 0000.0001)                 3.008638765647886E+05,      /* I = 18 */
(PID.TID 0000.0001)                 2.991805843171258E+05,      /* I = 19 */
(PID.TID 0000.0001)                 2.963715635865306E+05,      /* I = 20 */
(PID.TID 0000.0001)                 2.924298293668651E+05,      /* I = 21 */
(PID.TID 0000.0001)                 2.873420591008078E+05,      /* I = 22 */
(PID.TID 0000.0001)                 2.810845823202647E+05,      /* I = 23 */
(PID.TID 0000.0001)                 2.736173771018112E+05,      /* I = 24 */
(PID.TID 0000.0001)                 2.648750305193301E+05,      /* I = 25 */
(PID.TID 0000.0001)                 2.547526806712889E+05,      /* I = 26 */
(PID.TID 0000.0001)                 2.430829951739083E+05,      /* I = 27 */
(PID.TID 0000.0001)                 2.295958105911512E+05,      /* I = 28 */
(PID.TID 0000.0001)                 2.138410773065497E+05,      /* I = 29 */
(PID.TID 0000.0001)                 1.950254041626018E+05,      /* I = 30 */
(PID.TID 0000.0001)                 1.716197227386011E+05,      /* I = 31 */
(PID.TID 0000.0001)                 1.403701524205398E+05,      /* I = 32 */
(PID.TID 0000.0001)                 1.009837800879055E+05,      /* I = 33 */
(PID.TID 0000.0001)                 1.403701524205398E+05,      /* I = 34 */
(PID.TID 0000.0001)                 1.716197227386011E+05,      /* I = 35 */
(PID.TID 0000.0001)                 1.950254041626018E+05,      /* I = 36 */
(PID.TID 0000.0001)                 2.138410773065497E+05,      /* I = 37 */
(PID.TID 0000.0001)                 2.295958105911512E+05,      /* I = 38 */
(PID.TID 0000.0001)                 2.430829951739083E+05,      /* I = 39 */
(PID.TID 0000.0001)                 2.547526806712889E+05,      /* I = 40 */
(PID.TID 0000.0001)                 2.648750305193301E+05,      /* I = 41 */
(PID.TID 0000.0001)                 2.736173771018112E+05,      /* I = 42 */
(PID.TID 0000.0001)                 2.810845823202647E+05,      /* I = 43 */
(PID.TID 0000.0001)                 2.873420591008078E+05,      /* I = 44 */
(PID.TID 0000.0001)                 2.924298293668651E+05,      /* I = 45 */
(PID.TID 0000.0001)                 2.963715635865306E+05,      /* I = 46 */
(PID.TID 0000.0001)                 2.991805843171258E+05,      /* I = 47 */
(PID.TID 0000.0001)                 3.008638765647886E+05,      /* I = 48 */
(PID.TID 0000.0001)                 3.014246674484008E+05,      /* I = 49 */
(PID.TID 0000.0001)                 3.008638765647886E+05,      /* I = 50 */
(PID.TID 0000.0001)                 2.991805843171258E+05,      /* I = 51 */
(PID.TID 0000.0001)                 2.963715635865306E+05,      /* I = 52 */
(PID.TID 0000.0001)                 2.924298293668651E+05,      /* I = 53 */
(PID.TID 0000.0001)                 2.873420591008078E+05,      /* I = 54 */
(PID.TID 0000.0001)                 2.810845823202647E+05,      /* I = 55 */
(PID.TID 0000.0001)                 2.736173771018112E+05,      /* I = 56 */
(PID.TID 0000.0001)                 2.648750305193301E+05,      /* I = 57 */
(PID.TID 0000.0001)                 2.547526806712889E+05,      /* I = 58 */
(PID.TID 0000.0001)                 2.430829951739083E+05,      /* I = 59 */
(PID.TID 0000.0001)                 2.295958105911512E+05,      /* I = 60 */
(PID.TID 0000.0001)                 2.138410773065497E+05,      /* I = 61 */
(PID.TID 0000.0001)                 1.950254041626018E+05,      /* I = 62 */
(PID.TID 0000.0001)                 1.716197227386011E+05,      /* I = 63 */
(PID.TID 0000.0001)                 1.403701524205398E+05,      /* I = 64 */
(PID.TID 0000.0001)                 1.009837800879055E+05,      /* I = 65 */
(PID.TID 0000.0001)                 1.403701524205398E+05,      /* I = 66 */
(PID.TID 0000.0001)                 1.716197227386011E+05,      /* I = 67 */
(PID.TID 0000.0001)                 1.950254041626018E+05,      /* I = 68 */
(PID.TID 0000.0001)                 2.138410773065497E+05,      /* I = 69 */
(PID.TID 0000.0001)                 2.295958105911512E+05,      /* I = 70 */
(PID.TID 0000.0001)                 2.430829951739083E+05,      /* I = 71 */
(PID.TID 0000.0001)                 2.547526806712889E+05,      /* I = 72 */
(PID.TID 0000.0001)                 2.648750305193301E+05,      /* I = 73 */
(PID.TID 0000.0001)                 2.736173771018112E+05,      /* I = 74 */
(PID.TID 0000.0001)                 2.810845823202647E+05,      /* I = 75 */
(PID.TID 0000.0001)                 2.873420591008078E+05,      /* I = 76 */
(PID.TID 0000.0001)                 2.924298293668651E+05,      /* I = 77 */
(PID.TID 0000.0001)                 2.963715635865306E+05,      /* I = 78 */
(PID.TID 0000.0001)                 2.991805843171258E+05,      /* I = 79 */
(PID.TID 0000.0001)                 3.008638765647886E+05,      /* I = 80 */
(PID.TID 0000.0001)                 3.014246674484008E+05,      /* I = 81 */
(PID.TID 0000.0001)                 3.008638765647886E+05,      /* I = 82 */
(PID.TID 0000.0001)                 2.991805843171258E+05,      /* I = 83 */
(PID.TID 0000.0001)                 2.963715635865306E+05,      /* I = 84 */
(PID.TID 0000.0001)                 2.924298293668651E+05,      /* I = 85 */
(PID.TID 0000.0001)                 2.873420591008078E+05,      /* I = 86 */
(PID.TID 0000.0001)                 2.810845823202647E+05,      /* I = 87 */
(PID.TID 0000.0001)                 2.736173771018112E+05,      /* I = 88 */
(PID.TID 0000.0001)                 2.648750305193301E+05,      /* I = 89 */
(PID.TID 0000.0001)                 2.547526806712889E+05,      /* I = 90 */
(PID.TID 0000.0001)                 2.430829951739083E+05,      /* I = 91 */
(PID.TID 0000.0001)                 2.295958105911512E+05,      /* I = 92 */
(PID.TID 0000.0001)                 2.138410773065497E+05,      /* I = 93 */
(PID.TID 0000.0001)                 1.950254041626018E+05,      /* I = 94 */
(PID.TID 0000.0001)                 1.716197227386011E+05,      /* I = 95 */
(PID.TID 0000.0001)                 1.403701524205398E+05,      /* I = 96 */
(PID.TID 0000.0001)                 1.009837800879055E+05,      /* I = 97 */
(PID.TID 0000.0001)                 1.403701524205398E+05,      /* I = 98 */
(PID.TID 0000.0001)                 1.716197227386011E+05,      /* I = 99 */
(PID.TID 0000.0001)                 1.950254041626018E+05,      /* I =100 */
(PID.TID 0000.0001)                 2.138410773065497E+05,      /* I =101 */
(PID.TID 0000.0001)                 2.295958105911512E+05,      /* I =102 */
(PID.TID 0000.0001)                 2.430829951739083E+05,      /* I =103 */
(PID.TID 0000.0001)                 2.547526806712889E+05,      /* I =104 */
(PID.TID 0000.0001)                 2.648750305193301E+05,      /* I =105 */
(PID.TID 0000.0001)                 2.736173771018112E+05,      /* I =106 */
(PID.TID 0000.0001)                 2.810845823202647E+05,      /* I =107 */
(PID.TID 0000.0001)                 2.873420591008078E+05,      /* I =108 */
(PID.TID 0000.0001)                 2.924298293668651E+05,      /* I =109 */
(PID.TID 0000.0001)                 2.963715635865306E+05,      /* I =110 */
(PID.TID 0000.0001)                 2.991805843171258E+05,      /* I =111 */
(PID.TID 0000.0001)                 3.008638765647886E+05,      /* I =112 */
(PID.TID 0000.0001)                 3.014246674484008E+05,      /* I =113 */
(PID.TID 0000.0001)                 3.008638765647886E+05,      /* I =114 */
(PID.TID 0000.0001)                 2.991805843171258E+05,      /* I =115 */
(PID.TID 0000.0001)                 2.963715635865306E+05,      /* I =116 */
(PID.TID 0000.0001)                 2.924298293668651E+05,      /* I =117 */
(PID.TID 0000.0001)                 2.873420591008078E+05,      /* I =118 */
(PID.TID 0000.0001)                 2.810845823202647E+05,      /* I =119 */
(PID.TID 0000.0001)                 2.736173771018112E+05,      /* I =120 */
(PID.TID 0000.0001)                 2.648750305193301E+05,      /* I =121 */
(PID.TID 0000.0001)                 2.547526806712889E+05,      /* I =122 */
(PID.TID 0000.0001)                 2.430829951739083E+05,      /* I =123 */
(PID.TID 0000.0001)                 2.295958105911512E+05,      /* I =124 */
(PID.TID 0000.0001)                 2.138410773065497E+05,      /* I =125 */
(PID.TID 0000.0001)                 1.950254041626018E+05,      /* I =126 */
(PID.TID 0000.0001)                 1.716197227386011E+05,      /* I =127 */
(PID.TID 0000.0001)                 1.403701524205398E+05,      /* I =128 */
(PID.TID 0000.0001)                 1.009837800879055E+05,      /* I =129 */
(PID.TID 0000.0001)                 1.403701524205398E+05,      /* I =130 */
(PID.TID 0000.0001)                 1.716197227386011E+05,      /* I =131 */
(PID.TID 0000.0001)                 1.950254041626018E+05,      /* I =132 */
(PID.TID 0000.0001)                 2.138410773065497E+05,      /* I =133 */
(PID.TID 0000.0001)                 2.295958105911512E+05,      /* I =134 */
(PID.TID 0000.0001)                 2.430829951739083E+05,      /* I =135 */
(PID.TID 0000.0001)                 2.547526806712889E+05,      /* I =136 */
(PID.TID 0000.0001)                 2.648750305193301E+05,      /* I =137 */
(PID.TID 0000.0001)                 2.736173771018112E+05,      /* I =138 */
(PID.TID 0000.0001)                 2.810845823202647E+05,      /* I =139 */
(PID.TID 0000.0001)                 2.873420591008078E+05,      /* I =140 */
(PID.TID 0000.0001)                 2.924298293668651E+05,      /* I =141 */
(PID.TID 0000.0001)                 2.963715635865306E+05,      /* I =142 */
(PID.TID 0000.0001)                 2.991805843171258E+05,      /* I =143 */
(PID.TID 0000.0001)                 3.008638765647886E+05,      /* I =144 */
(PID.TID 0000.0001)                 3.014246674484008E+05,      /* I =145 */
(PID.TID 0000.0001)                 3.008638765647886E+05,      /* I =146 */
(PID.TID 0000.0001)                 2.991805843171258E+05,      /* I =147 */
(PID.TID 0000.0001)                 2.963715635865306E+05,      /* I =148 */
(PID.TID 0000.0001)                 2.924298293668651E+05,      /* I =149 */
(PID.TID 0000.0001)                 2.873420591008078E+05,      /* I =150 */
(PID.TID 0000.0001)                 2.810845823202647E+05,      /* I =151 */
(PID.TID 0000.0001)                 2.736173771018112E+05,      /* I =152 */
(PID.TID 0000.0001)                 2.648750305193301E+05,      /* I =153 */
(PID.TID 0000.0001)                 2.547526806712889E+05,      /* I =154 */
(PID.TID 0000.0001)                 2.430829951739083E+05,      /* I =155 */
(PID.TID 0000.0001)                 2.295958105911512E+05,      /* I =156 */
(PID.TID 0000.0001)                 2.138410773065497E+05,      /* I =157 */
(PID.TID 0000.0001)                 1.950254041626018E+05,      /* I =158 */
(PID.TID 0000.0001)                 1.716197227386011E+05,      /* I =159 */
(PID.TID 0000.0001)                 1.403701524205398E+05,      /* I =160 */
(PID.TID 0000.0001)                 1.009837800879055E+05,      /* I =161 */
(PID.TID 0000.0001)                 1.403701524205398E+05,      /* I =162 */
(PID.TID 0000.0001)                 1.716197227386011E+05,      /* I =163 */
(PID.TID 0000.0001)                 1.950254041626018E+05,      /* I =164 */
(PID.TID 0000.0001)                 2.138410773065497E+05,      /* I =165 */
(PID.TID 0000.0001)                 2.295958105911512E+05,      /* I =166 */
(PID.TID 0000.0001)                 2.430829951739083E+05,      /* I =167 */
(PID.TID 0000.0001)                 2.547526806712889E+05,      /* I =168 */
(PID.TID 0000.0001)                 2.648750305193301E+05,      /* I =169 */
(PID.TID 0000.0001)                 2.736173771018112E+05,      /* I =170 */
(PID.TID 0000.0001)                 2.810845823202647E+05,      /* I =171 */
(PID.TID 0000.0001)                 2.873420591008078E+05,      /* I =172 */
(PID.TID 0000.0001)                 2.924298293668651E+05,      /* I =173 */
(PID.TID 0000.0001)                 2.963715635865306E+05,      /* I =174 */
(PID.TID 0000.0001)                 2.991805843171258E+05,      /* I =175 */
(PID.TID 0000.0001)                 3.008638765647886E+05,      /* I =176 */
(PID.TID 0000.0001)                 3.014246674484008E+05,      /* I =177 */
(PID.TID 0000.0001)                 3.008638765647886E+05,      /* I =178 */
(PID.TID 0000.0001)                 2.991805843171258E+05,      /* I =179 */
(PID.TID 0000.0001)                 2.963715635865306E+05,      /* I =180 */
(PID.TID 0000.0001)                 2.924298293668651E+05,      /* I =181 */
(PID.TID 0000.0001)                 2.873420591008078E+05,      /* I =182 */
(PID.TID 0000.0001)                 2.810845823202647E+05,      /* I =183 */
(PID.TID 0000.0001)                 2.736173771018112E+05,      /* I =184 */
(PID.TID 0000.0001)                 2.648750305193301E+05,      /* I =185 */
(PID.TID 0000.0001)                 2.547526806712889E+05,      /* I =186 */
(PID.TID 0000.0001)                 2.430829951739083E+05,      /* I =187 */
(PID.TID 0000.0001)                 2.295958105911512E+05,      /* I =188 */
(PID.TID 0000.0001)                 2.138410773065497E+05,      /* I =189 */
(PID.TID 0000.0001)                 1.950254041626018E+05,      /* I =190 */
(PID.TID 0000.0001)                 1.716197227386011E+05,      /* I =191 */
(PID.TID 0000.0001)                 1.403701524205398E+05       /* I =192 */
(PID.TID 0000.0001)     ;
(PID.TID 0000.0001) dyG =  /* dyG(1,:,1,:) ( m - cartesian, degrees - spherical ) */
(PID.TID 0000.0001)                 1.009837800879055E+05,      /* J =  1 */
(PID.TID 0000.0001)                 1.534505834330338E+05,      /* J =  2 */
(PID.TID 0000.0001)                 1.823321598773926E+05,      /* J =  3 */
(PID.TID 0000.0001)                 2.038999045536999E+05,      /* J =  4 */
(PID.TID 0000.0001)                 2.213884732245467E+05,      /* J =  5 */
(PID.TID 0000.0001)                 2.361211699596122E+05,      /* J =  6 */
(PID.TID 0000.0001)                 2.487693460283865E+05,      /* J =  7 */
(PID.TID 0000.0001)                 2.597126963772147E+05,      /* J =  8 */
(PID.TID 0000.0001)                 2.691790288994575E+05,      /* J =  9 */
(PID.TID 0000.0001)                 2.773091043277394E+05,      /* J = 10 */
(PID.TID 0000.0001)                 2.841906470085516E+05,      /* J = 11 */
(PID.TID 0000.0001)                 2.898778860929753E+05,      /* J = 12 */
(PID.TID 0000.0001)                 2.944035815526416E+05,      /* J = 13 */
(PID.TID 0000.0001)                 2.977867909042096E+05,      /* J = 14 */
(PID.TID 0000.0001)                 3.000380090330854E+05,      /* J = 15 */
(PID.TID 0000.0001)     2 @  3.011625828699101E+05,             /* J = 16: 17 */
(PID.TID 0000.0001)                 3.000380090330854E+05,      /* J = 18 */
(PID.TID 0000.0001)                 2.977867909042096E+05,      /* J = 19 */
(PID.TID 0000.0001)                 2.944035815526416E+05,      /* J = 20 */
(PID.TID 0000.0001)                 2.898778860929753E+05,      /* J = 21 */
(PID.TID 0000.0001)                 2.841906470085516E+05,      /* J = 22 */
(PID.TID 0000.0001)                 2.773091043277394E+05,      /* J = 23 */
(PID.TID 0000.0001)                 2.691790288994575E+05,      /* J = 24 */
(PID.TID 0000.0001)                 2.597126963772147E+05,      /* J = 25 */
(PID.TID 0000.0001)                 2.487693460283865E+05,      /* J = 26 */
(PID.TID 0000.0001)                 2.361211699596122E+05,      /* J = 27 */
(PID.TID 0000.0001)                 2.213884732245467E+05,      /* J = 28 */
(PID.TID 0000.0001)                 2.038999045536999E+05,      /* J = 29 */
(PID.TID 0000.0001)                 1.823321598773926E+05,      /* J = 30 */
(PID.TID 0000.0001)                 1.534505834330338E+05,      /* J = 31 */
(PID.TID 0000.0001)                 1.009837800879055E+05       /* J = 32 */
(PID.TID 0000.0001)     ;
(PID.TID 0000.0001) dxC =  /* dxC(:,1,:,1) ( m - cartesian, degrees - spherical ) */
(PID.TID 0000.0001)                 1.114203141013064E+05,      /* I =  1 */
(PID.TID 0000.0001)                 1.391343389937106E+05,      /* I =  2 */
(PID.TID 0000.0001)                 1.709574999026266E+05,      /* I =  3 */
(PID.TID 0000.0001)                 1.946503699269892E+05,      /* I =  4 */
(PID.TID 0000.0001)                 2.135964483342134E+05,      /* I =  5 */
(PID.TID 0000.0001)                 2.294195678257306E+05,      /* I =  6 */
(PID.TID 0000.0001)                 2.429464709770498E+05,      /* I =  7 */
(PID.TID 0000.0001)                 2.546408290696998E+05,      /* I =  8 */
(PID.TID 0000.0001)                 2.647791839299727E+05,      /* I =  9 */
(PID.TID 0000.0001)                 2.735321911346108E+05,      /* I = 10 */
(PID.TID 0000.0001)                 2.810065951609633E+05,      /* I = 11 */
(PID.TID 0000.0001)                 2.872689479506990E+05,      /* I = 12 */
(PID.TID 0000.0001)                 2.923599955312932E+05,      /* I = 13 */
(PID.TID 0000.0001)                 2.963038832565530E+05,      /* I = 14 */
(PID.TID 0000.0001)                 2.991142470004740E+05,      /* I = 15 */
(PID.TID 0000.0001)                 3.007982711627968E+05,      /* I = 16 */
(PID.TID 0000.0001)                 3.013593857228136E+05,      /* I = 17 */
(PID.TID 0000.0001)                 3.007982711627968E+05,      /* I = 18 */
(PID.TID 0000.0001)                 2.991142470004740E+05,      /* I = 19 */
(PID.TID 0000.0001)                 2.963038832565530E+05,      /* I = 20 */
(PID.TID 0000.0001)                 2.923599955312932E+05,      /* I = 21 */
(PID.TID 0000.0001)                 2.872689479506990E+05,      /* I = 22 */
(PID.TID 0000.0001)                 2.810065951609633E+05,      /* I = 23 */
(PID.TID 0000.0001)                 2.735321911346108E+05,      /* I = 24 */
(PID.TID 0000.0001)                 2.647791839299727E+05,      /* I = 25 */
(PID.TID 0000.0001)                 2.546408290696998E+05,      /* I = 26 */
(PID.TID 0000.0001)                 2.429464709770498E+05,      /* I = 27 */
(PID.TID 0000.0001)                 2.294195678257306E+05,      /* I = 28 */
(PID.TID 0000.0001)                 2.135964483342134E+05,      /* I = 29 */
(PID.TID 0000.0001)                 1.946503699269892E+05,      /* I = 30 */
(PID.TID 0000.0001)                 1.709574999026266E+05,      /* I = 31 */
(PID.TID 0000.0001)                 1.391343389937106E+05,      /* I = 32 */
(PID.TID 0000.0001)                 1.114203141013064E+05,      /* I = 33 */
(PID.TID 0000.0001)                 1.391343389937106E+05,      /* I = 34 */
(PID.TID 0000.0001)                 1.709574999026266E+05,      /* I = 35 */
(PID.TID 0000.0001)                 1.946503699269892E+05,      /* I = 36 */
(PID.TID 0000.0001)                 2.135964483342134E+05,      /* I = 37 */
(PID.TID 0000.0001)                 2.294195678257306E+05,      /* I = 38 */
(PID.TID 0000.0001)                 2.429464709770498E+05,      /* I = 39 */
(PID.TID 0000.0001)                 2.546408290696998E+05,      /* I = 40 */
(PID.TID 0000.0001)                 2.647791839299727E+05,      /* I = 41 */
(PID.TID 0000.0001)                 2.735321911346108E+05,      /* I = 42 */
(PID.TID 0000.0001)                 2.810065951609633E+05,      /* I = 43 */
(PID.TID 0000.0001)                 2.872689479506990E+05,      /* I = 44 */
(PID.TID 0000.0001)                 2.923599955312932E+05,      /* I = 45 */
(PID.TID 0000.0001)                 2.963038832565530E+05,      /* I = 46 */
(PID.TID 0000.0001)                 2.991142470004740E+05,      /* I = 47 */
(PID.TID 0000.0001)                 3.007982711627968E+05,      /* I = 48 */
(PID.TID 0000.0001)                 3.013593857228136E+05,      /* I = 49 */
(PID.TID 0000.0001)                 3.007982711627968E+05,      /* I = 50 */
(PID.TID 0000.0001)                 2.991142470004740E+05,      /* I = 51 */
(PID.TID 0000.0001)                 2.963038832565530E+05,      /* I = 52 */
(PID.TID 0000.0001)                 2.923599955312932E+05,      /* I = 53 */
(PID.TID 0000.0001)                 2.872689479506990E+05,      /* I = 54 */
(PID.TID 0000.0001)                 2.810065951609633E+05,      /* I = 55 */
(PID.TID 0000.0001)                 2.735321911346108E+05,      /* I = 56 */
(PID.TID 0000.0001)                 2.647791839299727E+05,      /* I = 57 */
(PID.TID 0000.0001)                 2.546408290696998E+05,      /* I = 58 */
(PID.TID 0000.0001)                 2.429464709770498E+05,      /* I = 59 */
(PID.TID 0000.0001)                 2.294195678257306E+05,      /* I = 60 */
(PID.TID 0000.0001)                 2.135964483342134E+05,      /* I = 61 */
(PID.TID 0000.0001)                 1.946503699269892E+05,      /* I = 62 */
(PID.TID 0000.0001)                 1.709574999026266E+05,      /* I = 63 */
(PID.TID 0000.0001)                 1.391343389937106E+05,      /* I = 64 */
(PID.TID 0000.0001)                 1.114203141013064E+05,      /* I = 65 */
(PID.TID 0000.0001)                 1.391343389937106E+05,      /* I = 66 */
(PID.TID 0000.0001)                 1.709574999026266E+05,      /* I = 67 */
(PID.TID 0000.0001)                 1.946503699269892E+05,      /* I = 68 */
(PID.TID 0000.0001)                 2.135964483342134E+05,      /* I = 69 */
(PID.TID 0000.0001)                 2.294195678257306E+05,      /* I = 70 */
(PID.TID 0000.0001)                 2.429464709770498E+05,      /* I = 71 */
(PID.TID 0000.0001)                 2.546408290696998E+05,      /* I = 72 */
(PID.TID 0000.0001)                 2.647791839299727E+05,      /* I = 73 */
(PID.TID 0000.0001)                 2.735321911346108E+05,      /* I = 74 */
(PID.TID 0000.0001)                 2.810065951609633E+05,      /* I = 75 */
(PID.TID 0000.0001)                 2.872689479506990E+05,      /* I = 76 */
(PID.TID 0000.0001)                 2.923599955312932E+05,      /* I = 77 */
(PID.TID 0000.0001)                 2.963038832565530E+05,      /* I = 78 */
(PID.TID 0000.0001)                 2.991142470004740E+05,      /* I = 79 */
(PID.TID 0000.0001)                 3.007982711627968E+05,      /* I = 80 */
(PID.TID 0000.0001)                 3.013593857228136E+05,      /* I = 81 */
(PID.TID 0000.0001)                 3.007982711627968E+05,      /* I = 82 */
(PID.TID 0000.0001)                 2.991142470004740E+05,      /* I = 83 */
(PID.TID 0000.0001)                 2.963038832565530E+05,      /* I = 84 */
(PID.TID 0000.0001)                 2.923599955312932E+05,      /* I = 85 */
(PID.TID 0000.0001)                 2.872689479506990E+05,      /* I = 86 */
(PID.TID 0000.0001)                 2.810065951609633E+05,      /* I = 87 */
(PID.TID 0000.0001)                 2.735321911346108E+05,      /* I = 88 */
(PID.TID 0000.0001)                 2.647791839299727E+05,      /* I = 89 */
(PID.TID 0000.0001)                 2.546408290696998E+05,      /* I = 90 */
(PID.TID 0000.0001)                 2.429464709770498E+05,      /* I = 91 */
(PID.TID 0000.0001)                 2.294195678257306E+05,      /* I = 92 */
(PID.TID 0000.0001)                 2.135964483342134E+05,      /* I = 93 */
(PID.TID 0000.0001)                 1.946503699269892E+05,      /* I = 94 */
(PID.TID 0000.0001)                 1.709574999026266E+05,      /* I = 95 */
(PID.TID 0000.0001)                 1.391343389937106E+05,      /* I = 96 */
(PID.TID 0000.0001)                 1.114203141013064E+05,      /* I = 97 */
(PID.TID 0000.0001)                 1.391343389937106E+05,      /* I = 98 */
(PID.TID 0000.0001)                 1.709574999026266E+05,      /* I = 99 */
(PID.TID 0000.0001)                 1.946503699269892E+05,      /* I =100 */
(PID.TID 0000.0001)                 2.135964483342134E+05,      /* I =101 */
(PID.TID 0000.0001)                 2.294195678257306E+05,      /* I =102 */
(PID.TID 0000.0001)                 2.429464709770498E+05,      /* I =103 */
(PID.TID 0000.0001)                 2.546408290696998E+05,      /* I =104 */
(PID.TID 0000.0001)                 2.647791839299727E+05,      /* I =105 */
(PID.TID 0000.0001)                 2.735321911346108E+05,      /* I =106 */
(PID.TID 0000.0001)                 2.810065951609633E+05,      /* I =107 */
(PID.TID 0000.0001)                 2.872689479506990E+05,      /* I =108 */
(PID.TID 0000.0001)                 2.923599955312932E+05,      /* I =109 */
(PID.TID 0000.0001)                 2.963038832565530E+05,      /* I =110 */
(PID.TID 0000.0001)                 2.991142470004740E+05,      /* I =111 */
(PID.TID 0000.0001)                 3.007982711627968E+05,      /* I =112 */
(PID.TID 0000.0001)                 3.013593857228136E+05,      /* I =113 */
(PID.TID 0000.0001)                 3.007982711627968E+05,      /* I =114 */
(PID.TID 0000.0001)                 2.991142470004740E+05,      /* I =115 */
(PID.TID 0000.0001)                 2.963038832565530E+05,      /* I =116 */
(PID.TID 0000.0001)                 2.923599955312932E+05,      /* I =117 */
(PID.TID 0000.0001)                 2.872689479506990E+05,      /* I =118 */
(PID.TID 0000.0001)                 2.810065951609633E+05,      /* I =119 */
(PID.TID 0000.0001)                 2.735321911346108E+05,      /* I =120 */
(PID.TID 0000.0001)                 2.647791839299727E+05,      /* I =121 */
(PID.TID 0000.0001)                 2.546408290696998E+05,      /* I =122 */
(PID.TID 0000.0001)                 2.429464709770498E+05,      /* I =123 */
(PID.TID 0000.0001)                 2.294195678257306E+05,      /* I =124 */
(PID.TID 0000.0001)                 2.135964483342134E+05,      /* I =125 */
(PID.TID 0000.0001)                 1.946503699269892E+05,      /* I =126 */
(PID.TID 0000.0001)                 1.709574999026266E+05,      /* I =127 */
(PID.TID 0000.0001)                 1.391343389937106E+05,      /* I =128 */
(PID.TID 0000.0001)                 1.114203141013064E+05,      /* I =129 */
(PID.TID 0000.0001)                 1.391343389937106E+05,      /* I =130 */
(PID.TID 0000.0001)                 1.709574999026266E+05,      /* I =131 */
(PID.TID 0000.0001)                 1.946503699269892E+05,      /* I =132 */
(PID.TID 0000.0001)                 2.135964483342134E+05,      /* I =133 */
(PID.TID 0000.0001)                 2.294195678257306E+05,      /* I =134 */
(PID.TID 0000.0001)                 2.429464709770498E+05,      /* I =135 */
(PID.TID 0000.0001)                 2.546408290696998E+05,      /* I =136 */
(PID.TID 0000.0001)                 2.647791839299727E+05,      /* I =137 */
(PID.TID 0000.0001)                 2.735321911346108E+05,      /* I =138 */
(PID.TID 0000.0001)                 2.810065951609633E+05,      /* I =139 */
(PID.TID 0000.0001)                 2.872689479506990E+05,      /* I =140 */
(PID.TID 0000.0001)                 2.923599955312932E+05,      /* I =141 */
(PID.TID 0000.0001)                 2.963038832565530E+05,      /* I =142 */
(PID.TID 0000.0001)                 2.991142470004740E+05,      /* I =143 */
(PID.TID 0000.0001)                 3.007982711627968E+05,      /* I =144 */
(PID.TID 0000.0001)                 3.013593857228136E+05,      /* I =145 */
(PID.TID 0000.0001)                 3.007982711627968E+05,      /* I =146 */
(PID.TID 0000.0001)                 2.991142470004740E+05,      /* I =147 */
(PID.TID 0000.0001)                 2.963038832565530E+05,      /* I =148 */
(PID.TID 0000.0001)                 2.923599955312932E+05,      /* I =149 */
(PID.TID 0000.0001)                 2.872689479506990E+05,      /* I =150 */
(PID.TID 0000.0001)                 2.810065951609633E+05,      /* I =151 */
(PID.TID 0000.0001)                 2.735321911346108E+05,      /* I =152 */
(PID.TID 0000.0001)                 2.647791839299727E+05,      /* I =153 */
(PID.TID 0000.0001)                 2.546408290696998E+05,      /* I =154 */
(PID.TID 0000.0001)                 2.429464709770498E+05,      /* I =155 */
(PID.TID 0000.0001)                 2.294195678257306E+05,      /* I =156 */
(PID.TID 0000.0001)                 2.135964483342134E+05,      /* I =157 */
(PID.TID 0000.0001)                 1.946503699269892E+05,      /* I =158 */
(PID.TID 0000.0001)                 1.709574999026266E+05,      /* I =159 */
(PID.TID 0000.0001)                 1.391343389937106E+05,      /* I =160 */
(PID.TID 0000.0001)                 1.114203141013064E+05,      /* I =161 */
(PID.TID 0000.0001)                 1.391343389937106E+05,      /* I =162 */
(PID.TID 0000.0001)                 1.709574999026266E+05,      /* I =163 */
(PID.TID 0000.0001)                 1.946503699269892E+05,      /* I =164 */
(PID.TID 0000.0001)                 2.135964483342134E+05,      /* I =165 */
(PID.TID 0000.0001)                 2.294195678257306E+05,      /* I =166 */
(PID.TID 0000.0001)                 2.429464709770498E+05,      /* I =167 */
(PID.TID 0000.0001)                 2.546408290696998E+05,      /* I =168 */
(PID.TID 0000.0001)                 2.647791839299727E+05,      /* I =169 */
(PID.TID 0000.0001)                 2.735321911346108E+05,      /* I =170 */
(PID.TID 0000.0001)                 2.810065951609633E+05,      /* I =171 */
(PID.TID 0000.0001)                 2.872689479506990E+05,      /* I =172 */
(PID.TID 0000.0001)                 2.923599955312932E+05,      /* I =173 */
(PID.TID 0000.0001)                 2.963038832565530E+05,      /* I =174 */
(PID.TID 0000.0001)                 2.991142470004740E+05,      /* I =175 */
(PID.TID 0000.0001)                 3.007982711627968E+05,      /* I =176 */
(PID.TID 0000.0001)                 3.013593857228136E+05,      /* I =177 */
(PID.TID 0000.0001)                 3.007982711627968E+05,      /* I =178 */
(PID.TID 0000.0001)                 2.991142470004740E+05,      /* I =179 */
(PID.TID 0000.0001)                 2.963038832565530E+05,      /* I =180 */
(PID.TID 0000.0001)                 2.923599955312932E+05,      /* I =181 */
(PID.TID 0000.0001)                 2.872689479506990E+05,      /* I =182 */
(PID.TID 0000.0001)                 2.810065951609633E+05,      /* I =183 */
(PID.TID 0000.0001)                 2.735321911346108E+05,      /* I =184 */
(PID.TID 0000.0001)                 2.647791839299727E+05,      /* I =185 */
(PID.TID 0000.0001)                 2.546408290696998E+05,      /* I =186 */
(PID.TID 0000.0001)                 2.429464709770498E+05,      /* I =187 */
(PID.TID 0000.0001)                 2.294195678257306E+05,      /* I =188 */
(PID.TID 0000.0001)                 2.135964483342134E+05,      /* I =189 */
(PID.TID 0000.0001)                 1.946503699269892E+05,      /* I =190 */
(PID.TID 0000.0001)                 1.709574999026266E+05,      /* I =191 */
(PID.TID 0000.0001)                 1.391343389937106E+05       /* I =192 */
(PID.TID 0000.0001)     ;
(PID.TID 0000.0001) dxC =  /* dxC(1,:,1,:) ( m - cartesian, degrees - spherical ) */
(PID.TID 0000.0001)                 1.114203141013064E+05,      /* J =  1 */
(PID.TID 0000.0001)                 1.549545757850771E+05,      /* J =  2 */
(PID.TID 0000.0001)                 1.829777599966776E+05,      /* J =  3 */
(PID.TID 0000.0001)                 2.042717761866506E+05,      /* J =  4 */
(PID.TID 0000.0001)                 2.216367828252819E+05,      /* J =  5 */
(PID.TID 0000.0001)                 2.363029564123586E+05,      /* J =  6 */
(PID.TID 0000.0001)                 2.489113743322025E+05,      /* J =  7 */
(PID.TID 0000.0001)                 2.598293319150326E+05,      /* J =  8 */
(PID.TID 0000.0001)                 2.692787333338535E+05,      /* J =  9 */
(PID.TID 0000.0001)                 2.773972106720365E+05,      /* J = 10 */
(PID.TID 0000.0001)                 2.842706922224557E+05,      /* J = 11 */
(PID.TID 0000.0001)                 2.899523122489403E+05,      /* J = 12 */
(PID.TID 0000.0001)                 2.944741346384699E+05,      /* J = 13 */
(PID.TID 0000.0001)                 2.978547649292580E+05,      /* J = 14 */
(PID.TID 0000.0001)                 3.001044073506459E+05,      /* J = 15 */
(PID.TID 0000.0001)     2 @  3.012281885409289E+05,             /* J = 16: 17 */
(PID.TID 0000.0001)                 3.001044073506459E+05,      /* J = 18 */
(PID.TID 0000.0001)                 2.978547649292580E+05,      /* J = 19 */
(PID.TID 0000.0001)                 2.944741346384699E+05,      /* J = 20 */
(PID.TID 0000.0001)                 2.899523122489403E+05,      /* J = 21 */
(PID.TID 0000.0001)                 2.842706922224557E+05,      /* J = 22 */
(PID.TID 0000.0001)                 2.773972106720365E+05,      /* J = 23 */
(PID.TID 0000.0001)                 2.692787333338535E+05,      /* J = 24 */
(PID.TID 0000.0001)                 2.598293319150326E+05,      /* J = 25 */
(PID.TID 0000.0001)                 2.489113743322025E+05,      /* J = 26 */
(PID.TID 0000.0001)                 2.363029564123586E+05,      /* J = 27 */
(PID.TID 0000.0001)                 2.216367828252819E+05,      /* J = 28 */
(PID.TID 0000.0001)                 2.042717761866506E+05,      /* J = 29 */
(PID.TID 0000.0001)                 1.829777599966776E+05,      /* J = 30 */
(PID.TID 0000.0001)                 1.549545757850771E+05,      /* J = 31 */
(PID.TID 0000.0001)                 1.114203141013064E+05       /* J = 32 */
(PID.TID 0000.0001)     ;
(PID.TID 0000.0001) dyC =  /* dyC(:,1,:,1) ( m - cartesian, degrees - spherical ) */
(PID.TID 0000.0001)                 1.114203141013064E+05,      /* I =  1 */
(PID.TID 0000.0001)                 1.549545757850771E+05,      /* I =  2 */
(PID.TID 0000.0001)                 1.829777599966776E+05,      /* I =  3 */
(PID.TID 0000.0001)                 2.042717761866506E+05,      /* I =  4 */
(PID.TID 0000.0001)                 2.216367828252819E+05,      /* I =  5 */
(PID.TID 0000.0001)                 2.363029564123586E+05,      /* I =  6 */
(PID.TID 0000.0001)                 2.489113743322025E+05,      /* I =  7 */
(PID.TID 0000.0001)                 2.598293319150326E+05,      /* I =  8 */
(PID.TID 0000.0001)                 2.692787333338535E+05,      /* I =  9 */
(PID.TID 0000.0001)                 2.773972106720365E+05,      /* I = 10 */
(PID.TID 0000.0001)                 2.842706922224557E+05,      /* I = 11 */
(PID.TID 0000.0001)                 2.899523122489403E+05,      /* I = 12 */
(PID.TID 0000.0001)                 2.944741346384699E+05,      /* I = 13 */
(PID.TID 0000.0001)                 2.978547649292580E+05,      /* I = 14 */
(PID.TID 0000.0001)                 3.001044073506459E+05,      /* I = 15 */
(PID.TID 0000.0001)     2 @  3.012281885409289E+05,             /* I = 16: 17 */
(PID.TID 0000.0001)                 3.001044073506459E+05,      /* I = 18 */
(PID.TID 0000.0001)                 2.978547649292580E+05,      /* I = 19 */
(PID.TID 0000.0001)                 2.944741346384699E+05,      /* I = 20 */
(PID.TID 0000.0001)                 2.899523122489403E+05,      /* I = 21 */
(PID.TID 0000.0001)                 2.842706922224557E+05,      /* I = 22 */
(PID.TID 0000.0001)                 2.773972106720365E+05,      /* I = 23 */
(PID.TID 0000.0001)                 2.692787333338535E+05,      /* I = 24 */
(PID.TID 0000.0001)                 2.598293319150326E+05,      /* I = 25 */
(PID.TID 0000.0001)                 2.489113743322025E+05,      /* I = 26 */
(PID.TID 0000.0001)                 2.363029564123586E+05,      /* I = 27 */
(PID.TID 0000.0001)                 2.216367828252819E+05,      /* I = 28 */
(PID.TID 0000.0001)                 2.042717761866506E+05,      /* I = 29 */
(PID.TID 0000.0001)                 1.829777599966776E+05,      /* I = 30 */
(PID.TID 0000.0001)                 1.549545757850771E+05,      /* I = 31 */
(PID.TID 0000.0001)     2 @  1.114203141013064E+05,             /* I = 32: 33 */
(PID.TID 0000.0001)                 1.549545757850771E+05,      /* I = 34 */
(PID.TID 0000.0001)                 1.829777599966776E+05,      /* I = 35 */
(PID.TID 0000.0001)                 2.042717761866506E+05,      /* I = 36 */
(PID.TID 0000.0001)                 2.216367828252819E+05,      /* I = 37 */
(PID.TID 0000.0001)                 2.363029564123586E+05,      /* I = 38 */
(PID.TID 0000.0001)                 2.489113743322025E+05,      /* I = 39 */
(PID.TID 0000.0001)                 2.598293319150326E+05,      /* I = 40 */
(PID.TID 0000.0001)                 2.692787333338535E+05,      /* I = 41 */
(PID.TID 0000.0001)                 2.773972106720365E+05,      /* I = 42 */
(PID.TID 0000.0001)                 2.842706922224557E+05,      /* I = 43 */
(PID.TID 0000.0001)                 2.899523122489403E+05,      /* I = 44 */
(PID.TID 0000.0001)                 2.944741346384699E+05,      /* I = 45 */
(PID.TID 0000.0001)                 2.978547649292580E+05,      /* I = 46 */
(PID.TID 0000.0001)                 3.001044073506459E+05,      /* I = 47 */
(PID.TID 0000.0001)     2 @  3.012281885409289E+05,             /* I = 48: 49 */
(PID.TID 0000.0001)                 3.001044073506459E+05,      /* I = 50 */
(PID.TID 0000.0001)                 2.978547649292580E+05,      /* I = 51 */
(PID.TID 0000.0001)                 2.944741346384699E+05,      /* I = 52 */
(PID.TID 0000.0001)                 2.899523122489403E+05,      /* I = 53 */
(PID.TID 0000.0001)                 2.842706922224557E+05,      /* I = 54 */
(PID.TID 0000.0001)                 2.773972106720365E+05,      /* I = 55 */
(PID.TID 0000.0001)                 2.692787333338535E+05,      /* I = 56 */
(PID.TID 0000.0001)                 2.598293319150326E+05,      /* I = 57 */
(PID.TID 0000.0001)                 2.489113743322025E+05,      /* I = 58 */
(PID.TID 0000.0001)                 2.363029564123586E+05,      /* I = 59 */
(PID.TID 0000.0001)                 2.216367828252819E+05,      /* I = 60 */
(PID.TID 0000.0001)                 2.042717761866506E+05,      /* I = 61 */
(PID.TID 0000.0001)                 1.829777599966776E+05,      /* I = 62 */
(PID.TID 0000.0001)                 1.549545757850771E+05,      /* I = 63 */
(PID.TID 0000.0001)     2 @  1.114203141013064E+05,             /* I = 64: 65 */
(PID.TID 0000.0001)                 1.549545757850771E+05,      /* I = 66 */
(PID.TID 0000.0001)                 1.829777599966776E+05,      /* I = 67 */
(PID.TID 0000.0001)                 2.042717761866506E+05,      /* I = 68 */
(PID.TID 0000.0001)                 2.216367828252819E+05,      /* I = 69 */
(PID.TID 0000.0001)                 2.363029564123586E+05,      /* I = 70 */
(PID.TID 0000.0001)                 2.489113743322025E+05,      /* I = 71 */
(PID.TID 0000.0001)                 2.598293319150326E+05,      /* I = 72 */
(PID.TID 0000.0001)                 2.692787333338535E+05,      /* I = 73 */
(PID.TID 0000.0001)                 2.773972106720365E+05,      /* I = 74 */
(PID.TID 0000.0001)                 2.842706922224557E+05,      /* I = 75 */
(PID.TID 0000.0001)                 2.899523122489403E+05,      /* I = 76 */
(PID.TID 0000.0001)                 2.944741346384699E+05,      /* I = 77 */
(PID.TID 0000.0001)                 2.978547649292580E+05,      /* I = 78 */
(PID.TID 0000.0001)                 3.001044073506459E+05,      /* I = 79 */
(PID.TID 0000.0001)     2 @  3.012281885409289E+05,             /* I = 80: 81 */
(PID.TID 0000.0001)                 3.001044073506459E+05,      /* I = 82 */
(PID.TID 0000.0001)                 2.978547649292580E+05,      /* I = 83 */
(PID.TID 0000.0001)                 2.944741346384699E+05,      /* I = 84 */
(PID.TID 0000.0001)                 2.899523122489403E+05,      /* I = 85 */
(PID.TID 0000.0001)                 2.842706922224557E+05,      /* I = 86 */
(PID.TID 0000.0001)                 2.773972106720365E+05,      /* I = 87 */
(PID.TID 0000.0001)                 2.692787333338535E+05,      /* I = 88 */
(PID.TID 0000.0001)                 2.598293319150326E+05,      /* I = 89 */
(PID.TID 0000.0001)                 2.489113743322025E+05,      /* I = 90 */
(PID.TID 0000.0001)                 2.363029564123586E+05,      /* I = 91 */
(PID.TID 0000.0001)                 2.216367828252819E+05,      /* I = 92 */
(PID.TID 0000.0001)                 2.042717761866506E+05,      /* I = 93 */
(PID.TID 0000.0001)                 1.829777599966776E+05,      /* I = 94 */
(PID.TID 0000.0001)                 1.549545757850771E+05,      /* I = 95 */
(PID.TID 0000.0001)     2 @  1.114203141013064E+05,             /* I = 96: 97 */
(PID.TID 0000.0001)                 1.549545757850771E+05,      /* I = 98 */
(PID.TID 0000.0001)                 1.829777599966776E+05,      /* I = 99 */
(PID.TID 0000.0001)                 2.042717761866506E+05,      /* I =100 */
(PID.TID 0000.0001)                 2.216367828252819E+05,      /* I =101 */
(PID.TID 0000.0001)                 2.363029564123586E+05,      /* I =102 */
(PID.TID 0000.0001)                 2.489113743322025E+05,      /* I =103 */
(PID.TID 0000.0001)                 2.598293319150326E+05,      /* I =104 */
(PID.TID 0000.0001)                 2.692787333338535E+05,      /* I =105 */
(PID.TID 0000.0001)                 2.773972106720365E+05,      /* I =106 */
(PID.TID 0000.0001)                 2.842706922224557E+05,      /* I =107 */
(PID.TID 0000.0001)                 2.899523122489403E+05,      /* I =108 */
(PID.TID 0000.0001)                 2.944741346384699E+05,      /* I =109 */
(PID.TID 0000.0001)                 2.978547649292580E+05,      /* I =110 */
(PID.TID 0000.0001)                 3.001044073506459E+05,      /* I =111 */
(PID.TID 0000.0001)     2 @  3.012281885409289E+05,             /* I =112:113 */
(PID.TID 0000.0001)                 3.001044073506459E+05,      /* I =114 */
(PID.TID 0000.0001)                 2.978547649292580E+05,      /* I =115 */
(PID.TID 0000.0001)                 2.944741346384699E+05,      /* I =116 */
(PID.TID 0000.0001)                 2.899523122489403E+05,      /* I =117 */
(PID.TID 0000.0001)                 2.842706922224557E+05,      /* I =118 */
(PID.TID 0000.0001)                 2.773972106720365E+05,      /* I =119 */
(PID.TID 0000.0001)                 2.692787333338535E+05,      /* I =120 */
(PID.TID 0000.0001)                 2.598293319150326E+05,      /* I =121 */
(PID.TID 0000.0001)                 2.489113743322025E+05,      /* I =122 */
(PID.TID 0000.0001)                 2.363029564123586E+05,      /* I =123 */
(PID.TID 0000.0001)                 2.216367828252819E+05,      /* I =124 */
(PID.TID 0000.0001)                 2.042717761866506E+05,      /* I =125 */
(PID.TID 0000.0001)                 1.829777599966776E+05,      /* I =126 */
(PID.TID 0000.0001)                 1.549545757850771E+05,      /* I =127 */
(PID.TID 0000.0001)     2 @  1.114203141013064E+05,             /* I =128:129 */
(PID.TID 0000.0001)                 1.549545757850771E+05,      /* I =130 */
(PID.TID 0000.0001)                 1.829777599966776E+05,      /* I =131 */
(PID.TID 0000.0001)                 2.042717761866506E+05,      /* I =132 */
(PID.TID 0000.0001)                 2.216367828252819E+05,      /* I =133 */
(PID.TID 0000.0001)                 2.363029564123586E+05,      /* I =134 */
(PID.TID 0000.0001)                 2.489113743322025E+05,      /* I =135 */
(PID.TID 0000.0001)                 2.598293319150326E+05,      /* I =136 */
(PID.TID 0000.0001)                 2.692787333338535E+05,      /* I =137 */
(PID.TID 0000.0001)                 2.773972106720365E+05,      /* I =138 */
(PID.TID 0000.0001)                 2.842706922224557E+05,      /* I =139 */
(PID.TID 0000.0001)                 2.899523122489403E+05,      /* I =140 */
(PID.TID 0000.0001)                 2.944741346384699E+05,      /* I =141 */
(PID.TID 0000.0001)                 2.978547649292580E+05,      /* I =142 */
(PID.TID 0000.0001)                 3.001044073506459E+05,      /* I =143 */
(PID.TID 0000.0001)     2 @  3.012281885409289E+05,             /* I =144:145 */
(PID.TID 0000.0001)                 3.001044073506459E+05,      /* I =146 */
(PID.TID 0000.0001)                 2.978547649292580E+05,      /* I =147 */
(PID.TID 0000.0001)                 2.944741346384699E+05,      /* I =148 */
(PID.TID 0000.0001)                 2.899523122489403E+05,      /* I =149 */
(PID.TID 0000.0001)                 2.842706922224557E+05,      /* I =150 */
(PID.TID 0000.0001)                 2.773972106720365E+05,      /* I =151 */
(PID.TID 0000.0001)                 2.692787333338535E+05,      /* I =152 */
(PID.TID 0000.0001)                 2.598293319150326E+05,      /* I =153 */
(PID.TID 0000.0001)                 2.489113743322025E+05,      /* I =154 */
(PID.TID 0000.0001)                 2.363029564123586E+05,      /* I =155 */
(PID.TID 0000.0001)                 2.216367828252819E+05,      /* I =156 */
(PID.TID 0000.0001)                 2.042717761866506E+05,      /* I =157 */
(PID.TID 0000.0001)                 1.829777599966776E+05,      /* I =158 */
(PID.TID 0000.0001)                 1.549545757850771E+05,      /* I =159 */
(PID.TID 0000.0001)     2 @  1.114203141013064E+05,             /* I =160:161 */
(PID.TID 0000.0001)                 1.549545757850771E+05,      /* I =162 */
(PID.TID 0000.0001)                 1.829777599966776E+05,      /* I =163 */
(PID.TID 0000.0001)                 2.042717761866506E+05,      /* I =164 */
(PID.TID 0000.0001)                 2.216367828252819E+05,      /* I =165 */
(PID.TID 0000.0001)                 2.363029564123586E+05,      /* I =166 */
(PID.TID 0000.0001)                 2.489113743322025E+05,      /* I =167 */
(PID.TID 0000.0001)                 2.598293319150326E+05,      /* I =168 */
(PID.TID 0000.0001)                 2.692787333338535E+05,      /* I =169 */
(PID.TID 0000.0001)                 2.773972106720365E+05,      /* I =170 */
(PID.TID 0000.0001)                 2.842706922224557E+05,      /* I =171 */
(PID.TID 0000.0001)                 2.899523122489403E+05,      /* I =172 */
(PID.TID 0000.0001)                 2.944741346384699E+05,      /* I =173 */
(PID.TID 0000.0001)                 2.978547649292580E+05,      /* I =174 */
(PID.TID 0000.0001)                 3.001044073506459E+05,      /* I =175 */
(PID.TID 0000.0001)     2 @  3.012281885409289E+05,             /* I =176:177 */
(PID.TID 0000.0001)                 3.001044073506459E+05,      /* I =178 */
(PID.TID 0000.0001)                 2.978547649292580E+05,      /* I =179 */
(PID.TID 0000.0001)                 2.944741346384699E+05,      /* I =180 */
(PID.TID 0000.0001)                 2.899523122489403E+05,      /* I =181 */
(PID.TID 0000.0001)                 2.842706922224557E+05,      /* I =182 */
(PID.TID 0000.0001)                 2.773972106720365E+05,      /* I =183 */
(PID.TID 0000.0001)                 2.692787333338535E+05,      /* I =184 */
(PID.TID 0000.0001)                 2.598293319150326E+05,      /* I =185 */
(PID.TID 0000.0001)                 2.489113743322025E+05,      /* I =186 */
(PID.TID 0000.0001)                 2.363029564123586E+05,      /* I =187 */
(PID.TID 0000.0001)                 2.216367828252819E+05,      /* I =188 */
(PID.TID 0000.0001)                 2.042717761866506E+05,      /* I =189 */
(PID.TID 0000.0001)                 1.829777599966776E+05,      /* I =190 */
(PID.TID 0000.0001)                 1.549545757850771E+05,      /* I =191 */
(PID.TID 0000.0001)                 1.114203141013064E+05       /* I =192 */
(PID.TID 0000.0001)     ;
(PID.TID 0000.0001) dyC =  /* dyC(1,:,1,:) ( m - cartesian, degrees - spherical ) */
(PID.TID 0000.0001)                 1.114203141013064E+05,      /* J =  1 */
(PID.TID 0000.0001)                 1.391343389937106E+05,      /* J =  2 */
(PID.TID 0000.0001)                 1.709574999026266E+05,      /* J =  3 */
(PID.TID 0000.0001)                 1.946503699269892E+05,      /* J =  4 */
(PID.TID 0000.0001)                 2.135964483342134E+05,      /* J =  5 */
(PID.TID 0000.0001)                 2.294195678257306E+05,      /* J =  6 */
(PID.TID 0000.0001)                 2.429464709770498E+05,      /* J =  7 */
(PID.TID 0000.0001)                 2.546408290696998E+05,      /* J =  8 */
(PID.TID 0000.0001)                 2.647791839299727E+05,      /* J =  9 */
(PID.TID 0000.0001)                 2.735321911346108E+05,      /* J = 10 */
(PID.TID 0000.0001)                 2.810065951609633E+05,      /* J = 11 */
(PID.TID 0000.0001)                 2.872689479506990E+05,      /* J = 12 */
(PID.TID 0000.0001)                 2.923599955312932E+05,      /* J = 13 */
(PID.TID 0000.0001)                 2.963038832565530E+05,      /* J = 14 */
(PID.TID 0000.0001)                 2.991142470004740E+05,      /* J = 15 */
(PID.TID 0000.0001)                 3.007982711627968E+05,      /* J = 16 */
(PID.TID 0000.0001)                 3.013593857228136E+05,      /* J = 17 */
(PID.TID 0000.0001)                 3.007982711627968E+05,      /* J = 18 */
(PID.TID 0000.0001)                 2.991142470004740E+05,      /* J = 19 */
(PID.TID 0000.0001)                 2.963038832565530E+05,      /* J = 20 */
(PID.TID 0000.0001)                 2.923599955312932E+05,      /* J = 21 */
(PID.TID 0000.0001)                 2.872689479506990E+05,      /* J = 22 */
(PID.TID 0000.0001)                 2.810065951609633E+05,      /* J = 23 */
(PID.TID 0000.0001)                 2.735321911346108E+05,      /* J = 24 */
(PID.TID 0000.0001)                 2.647791839299727E+05,      /* J = 25 */
(PID.TID 0000.0001)                 2.546408290696998E+05,      /* J = 26 */
(PID.TID 0000.0001)                 2.429464709770498E+05,      /* J = 27 */
(PID.TID 0000.0001)                 2.294195678257306E+05,      /* J = 28 */
(PID.TID 0000.0001)                 2.135964483342134E+05,      /* J = 29 */
(PID.TID 0000.0001)                 1.946503699269892E+05,      /* J = 30 */
(PID.TID 0000.0001)                 1.709574999026266E+05,      /* J = 31 */
(PID.TID 0000.0001)                 1.391343389937106E+05       /* J = 32 */
(PID.TID 0000.0001)     ;
(PID.TID 0000.0001) dxV =  /* dxV(:,1,:,1) ( m - cartesian, degrees - spherical ) */
(PID.TID 0000.0001)                 8.015229982413632E+04,      /* I =  1 */
(PID.TID 0000.0001)                 1.333130744933864E+05,      /* I =  2 */
(PID.TID 0000.0001)                 1.691744868129062E+05,      /* I =  3 */
(PID.TID 0000.0001)                 1.937548202849060E+05,      /* I =  4 */
(PID.TID 0000.0001)                 2.130490056267208E+05,      /* I =  5 */
(PID.TID 0000.0001)                 2.290479919481738E+05,      /* I =  6 */
(PID.TID 0000.0001)                 2.426774358027003E+05,      /* I =  7 */
(PID.TID 0000.0001)                 2.544372984215561E+05,      /* I =  8 */
(PID.TID 0000.0001)                 2.646201463834826E+05,      /* I =  9 */
(PID.TID 0000.0001)                 2.734046499619031E+05,      /* I = 10 */
(PID.TID 0000.0001)                 2.809019351693761E+05,      /* I = 11 */
(PID.TID 0000.0001)                 2.871811105274442E+05,      /* I = 12 */
(PID.TID 0000.0001)                 2.922844849381675E+05,      /* I = 13 */
(PID.TID 0000.0001)                 2.962371870847826E+05,      /* I = 14 */
(PID.TID 0000.0001)                 2.990534755671296E+05,      /* I = 15 */
(PID.TID 0000.0001)                 3.007409169495504E+05,      /* I = 16 */
(PID.TID 0000.0001)                 3.013031486919771E+05,      /* I = 17 */
(PID.TID 0000.0001)                 3.007409169495504E+05,      /* I = 18 */
(PID.TID 0000.0001)                 2.990534755671296E+05,      /* I = 19 */
(PID.TID 0000.0001)                 2.962371870847826E+05,      /* I = 20 */
(PID.TID 0000.0001)                 2.922844849381675E+05,      /* I = 21 */
(PID.TID 0000.0001)                 2.871811105274442E+05,      /* I = 22 */
(PID.TID 0000.0001)                 2.809019351693761E+05,      /* I = 23 */
(PID.TID 0000.0001)                 2.734046499619031E+05,      /* I = 24 */
(PID.TID 0000.0001)                 2.646201463834826E+05,      /* I = 25 */
(PID.TID 0000.0001)                 2.544372984215561E+05,      /* I = 26 */
(PID.TID 0000.0001)                 2.426774358027003E+05,      /* I = 27 */
(PID.TID 0000.0001)                 2.290479919481738E+05,      /* I = 28 */
(PID.TID 0000.0001)                 2.130490056267208E+05,      /* I = 29 */
(PID.TID 0000.0001)                 1.937548202849060E+05,      /* I = 30 */
(PID.TID 0000.0001)                 1.691744868129062E+05,      /* I = 31 */
(PID.TID 0000.0001)                 1.333130744933864E+05,      /* I = 32 */
(PID.TID 0000.0001)                 8.015229982413632E+04,      /* I = 33 */
(PID.TID 0000.0001)                 1.333130744933864E+05,      /* I = 34 */
(PID.TID 0000.0001)                 1.691744868129062E+05,      /* I = 35 */
(PID.TID 0000.0001)                 1.937548202849060E+05,      /* I = 36 */
(PID.TID 0000.0001)                 2.130490056267208E+05,      /* I = 37 */
(PID.TID 0000.0001)                 2.290479919481738E+05,      /* I = 38 */
(PID.TID 0000.0001)                 2.426774358027003E+05,      /* I = 39 */
(PID.TID 0000.0001)                 2.544372984215561E+05,      /* I = 40 */
(PID.TID 0000.0001)                 2.646201463834826E+05,      /* I = 41 */
(PID.TID 0000.0001)                 2.734046499619031E+05,      /* I = 42 */
(PID.TID 0000.0001)                 2.809019351693761E+05,      /* I = 43 */
(PID.TID 0000.0001)                 2.871811105274442E+05,      /* I = 44 */
(PID.TID 0000.0001)                 2.922844849381675E+05,      /* I = 45 */
(PID.TID 0000.0001)                 2.962371870847826E+05,      /* I = 46 */
(PID.TID 0000.0001)                 2.990534755671296E+05,      /* I = 47 */
(PID.TID 0000.0001)                 3.007409169495504E+05,      /* I = 48 */
(PID.TID 0000.0001)                 3.013031486919771E+05,      /* I = 49 */
(PID.TID 0000.0001)                 3.007409169495504E+05,      /* I = 50 */
(PID.TID 0000.0001)                 2.990534755671296E+05,      /* I = 51 */
(PID.TID 0000.0001)                 2.962371870847826E+05,      /* I = 52 */
(PID.TID 0000.0001)                 2.922844849381675E+05,      /* I = 53 */
(PID.TID 0000.0001)                 2.871811105274442E+05,      /* I = 54 */
(PID.TID 0000.0001)                 2.809019351693761E+05,      /* I = 55 */
(PID.TID 0000.0001)                 2.734046499619031E+05,      /* I = 56 */
(PID.TID 0000.0001)                 2.646201463834826E+05,      /* I = 57 */
(PID.TID 0000.0001)                 2.544372984215561E+05,      /* I = 58 */
(PID.TID 0000.0001)                 2.426774358027003E+05,      /* I = 59 */
(PID.TID 0000.0001)                 2.290479919481738E+05,      /* I = 60 */
(PID.TID 0000.0001)                 2.130490056267208E+05,      /* I = 61 */
(PID.TID 0000.0001)                 1.937548202849060E+05,      /* I = 62 */
(PID.TID 0000.0001)                 1.691744868129062E+05,      /* I = 63 */
(PID.TID 0000.0001)                 1.333130744933864E+05,      /* I = 64 */
(PID.TID 0000.0001)                 8.015229982413632E+04,      /* I = 65 */
(PID.TID 0000.0001)                 1.333130744933864E+05,      /* I = 66 */
(PID.TID 0000.0001)                 1.691744868129062E+05,      /* I = 67 */
(PID.TID 0000.0001)                 1.937548202849060E+05,      /* I = 68 */
(PID.TID 0000.0001)                 2.130490056267208E+05,      /* I = 69 */
(PID.TID 0000.0001)                 2.290479919481738E+05,      /* I = 70 */
(PID.TID 0000.0001)                 2.426774358027003E+05,      /* I = 71 */
(PID.TID 0000.0001)                 2.544372984215561E+05,      /* I = 72 */
(PID.TID 0000.0001)                 2.646201463834826E+05,      /* I = 73 */
(PID.TID 0000.0001)                 2.734046499619031E+05,      /* I = 74 */
(PID.TID 0000.0001)                 2.809019351693761E+05,      /* I = 75 */
(PID.TID 0000.0001)                 2.871811105274442E+05,      /* I = 76 */
(PID.TID 0000.0001)                 2.922844849381675E+05,      /* I = 77 */
(PID.TID 0000.0001)                 2.962371870847826E+05,      /* I = 78 */
(PID.TID 0000.0001)                 2.990534755671296E+05,      /* I = 79 */
(PID.TID 0000.0001)                 3.007409169495504E+05,      /* I = 80 */
(PID.TID 0000.0001)                 3.013031486919771E+05,      /* I = 81 */
(PID.TID 0000.0001)                 3.007409169495504E+05,      /* I = 82 */
(PID.TID 0000.0001)                 2.990534755671296E+05,      /* I = 83 */
(PID.TID 0000.0001)                 2.962371870847826E+05,      /* I = 84 */
(PID.TID 0000.0001)                 2.922844849381675E+05,      /* I = 85 */
(PID.TID 0000.0001)                 2.871811105274442E+05,      /* I = 86 */
(PID.TID 0000.0001)                 2.809019351693761E+05,      /* I = 87 */
(PID.TID 0000.0001)                 2.734046499619031E+05,      /* I = 88 */
(PID.TID 0000.0001)                 2.646201463834826E+05,      /* I = 89 */
(PID.TID 0000.0001)                 2.544372984215561E+05,      /* I = 90 */
(PID.TID 0000.0001)                 2.426774358027003E+05,      /* I = 91 */
(PID.TID 0000.0001)                 2.290479919481738E+05,      /* I = 92 */
(PID.TID 0000.0001)                 2.130490056267208E+05,      /* I = 93 */
(PID.TID 0000.0001)                 1.937548202849060E+05,      /* I = 94 */
(PID.TID 0000.0001)                 1.691744868129062E+05,      /* I = 95 */
(PID.TID 0000.0001)                 1.333130744933864E+05,      /* I = 96 */
(PID.TID 0000.0001)                 8.015229982413632E+04,      /* I = 97 */
(PID.TID 0000.0001)                 1.333130744933864E+05,      /* I = 98 */
(PID.TID 0000.0001)                 1.691744868129062E+05,      /* I = 99 */
(PID.TID 0000.0001)                 1.937548202849060E+05,      /* I =100 */
(PID.TID 0000.0001)                 2.130490056267208E+05,      /* I =101 */
(PID.TID 0000.0001)                 2.290479919481738E+05,      /* I =102 */
(PID.TID 0000.0001)                 2.426774358027003E+05,      /* I =103 */
(PID.TID 0000.0001)                 2.544372984215561E+05,      /* I =104 */
(PID.TID 0000.0001)                 2.646201463834826E+05,      /* I =105 */
(PID.TID 0000.0001)                 2.734046499619031E+05,      /* I =106 */
(PID.TID 0000.0001)                 2.809019351693761E+05,      /* I =107 */
(PID.TID 0000.0001)                 2.871811105274442E+05,      /* I =108 */
(PID.TID 0000.0001)                 2.922844849381675E+05,      /* I =109 */
(PID.TID 0000.0001)                 2.962371870847826E+05,      /* I =110 */
(PID.TID 0000.0001)                 2.990534755671296E+05,      /* I =111 */
(PID.TID 0000.0001)                 3.007409169495504E+05,      /* I =112 */
(PID.TID 0000.0001)                 3.013031486919771E+05,      /* I =113 */
(PID.TID 0000.0001)                 3.007409169495504E+05,      /* I =114 */
(PID.TID 0000.0001)                 2.990534755671296E+05,      /* I =115 */
(PID.TID 0000.0001)                 2.962371870847826E+05,      /* I =116 */
(PID.TID 0000.0001)                 2.922844849381675E+05,      /* I =117 */
(PID.TID 0000.0001)                 2.871811105274442E+05,      /* I =118 */
(PID.TID 0000.0001)                 2.809019351693761E+05,      /* I =119 */
(PID.TID 0000.0001)                 2.734046499619031E+05,      /* I =120 */
(PID.TID 0000.0001)                 2.646201463834826E+05,      /* I =121 */
(PID.TID 0000.0001)                 2.544372984215561E+05,      /* I =122 */
(PID.TID 0000.0001)                 2.426774358027003E+05,      /* I =123 */
(PID.TID 0000.0001)                 2.290479919481738E+05,      /* I =124 */
(PID.TID 0000.0001)                 2.130490056267208E+05,      /* I =125 */
(PID.TID 0000.0001)                 1.937548202849060E+05,      /* I =126 */
(PID.TID 0000.0001)                 1.691744868129062E+05,      /* I =127 */
(PID.TID 0000.0001)                 1.333130744933864E+05,      /* I =128 */
(PID.TID 0000.0001)                 8.015229982413632E+04,      /* I =129 */
(PID.TID 0000.0001)                 1.333130744933864E+05,      /* I =130 */
(PID.TID 0000.0001)                 1.691744868129062E+05,      /* I =131 */
(PID.TID 0000.0001)                 1.937548202849060E+05,      /* I =132 */
(PID.TID 0000.0001)                 2.130490056267208E+05,      /* I =133 */
(PID.TID 0000.0001)                 2.290479919481738E+05,      /* I =134 */
(PID.TID 0000.0001)                 2.426774358027003E+05,      /* I =135 */
(PID.TID 0000.0001)                 2.544372984215561E+05,      /* I =136 */
(PID.TID 0000.0001)                 2.646201463834826E+05,      /* I =137 */
(PID.TID 0000.0001)                 2.734046499619031E+05,      /* I =138 */
(PID.TID 0000.0001)                 2.809019351693761E+05,      /* I =139 */
(PID.TID 0000.0001)                 2.871811105274442E+05,      /* I =140 */
(PID.TID 0000.0001)                 2.922844849381675E+05,      /* I =141 */
(PID.TID 0000.0001)                 2.962371870847826E+05,      /* I =142 */
(PID.TID 0000.0001)                 2.990534755671296E+05,      /* I =143 */
(PID.TID 0000.0001)                 3.007409169495504E+05,      /* I =144 */
(PID.TID 0000.0001)                 3.013031486919771E+05,      /* I =145 */
(PID.TID 0000.0001)                 3.007409169495504E+05,      /* I =146 */
(PID.TID 0000.0001)                 2.990534755671296E+05,      /* I =147 */
(PID.TID 0000.0001)                 2.962371870847826E+05,      /* I =148 */
(PID.TID 0000.0001)                 2.922844849381675E+05,      /* I =149 */
(PID.TID 0000.0001)                 2.871811105274442E+05,      /* I =150 */
(PID.TID 0000.0001)                 2.809019351693761E+05,      /* I =151 */
(PID.TID 0000.0001)                 2.734046499619031E+05,      /* I =152 */
(PID.TID 0000.0001)                 2.646201463834826E+05,      /* I =153 */
(PID.TID 0000.0001)                 2.544372984215561E+05,      /* I =154 */
(PID.TID 0000.0001)                 2.426774358027003E+05,      /* I =155 */
(PID.TID 0000.0001)                 2.290479919481738E+05,      /* I =156 */
(PID.TID 0000.0001)                 2.130490056267208E+05,      /* I =157 */
(PID.TID 0000.0001)                 1.937548202849060E+05,      /* I =158 */
(PID.TID 0000.0001)                 1.691744868129062E+05,      /* I =159 */
(PID.TID 0000.0001)                 1.333130744933864E+05,      /* I =160 */
(PID.TID 0000.0001)                 8.015229982413632E+04,      /* I =161 */
(PID.TID 0000.0001)                 1.333130744933864E+05,      /* I =162 */
(PID.TID 0000.0001)                 1.691744868129062E+05,      /* I =163 */
(PID.TID 0000.0001)                 1.937548202849060E+05,      /* I =164 */
(PID.TID 0000.0001)                 2.130490056267208E+05,      /* I =165 */
(PID.TID 0000.0001)                 2.290479919481738E+05,      /* I =166 */
(PID.TID 0000.0001)                 2.426774358027003E+05,      /* I =167 */
(PID.TID 0000.0001)                 2.544372984215561E+05,      /* I =168 */
(PID.TID 0000.0001)                 2.646201463834826E+05,      /* I =169 */
(PID.TID 0000.0001)                 2.734046499619031E+05,      /* I =170 */
(PID.TID 0000.0001)                 2.809019351693761E+05,      /* I =171 */
(PID.TID 0000.0001)                 2.871811105274442E+05,      /* I =172 */
(PID.TID 0000.0001)                 2.922844849381675E+05,      /* I =173 */
(PID.TID 0000.0001)                 2.962371870847826E+05,      /* I =174 */
(PID.TID 0000.0001)                 2.990534755671296E+05,      /* I =175 */
(PID.TID 0000.0001)                 3.007409169495504E+05,      /* I =176 */
(PID.TID 0000.0001)                 3.013031486919771E+05,      /* I =177 */
(PID.TID 0000.0001)                 3.007409169495504E+05,      /* I =178 */
(PID.TID 0000.0001)                 2.990534755671296E+05,      /* I =179 */
(PID.TID 0000.0001)                 2.962371870847826E+05,      /* I =180 */
(PID.TID 0000.0001)                 2.922844849381675E+05,      /* I =181 */
(PID.TID 0000.0001)                 2.871811105274442E+05,      /* I =182 */
(PID.TID 0000.0001)                 2.809019351693761E+05,      /* I =183 */
(PID.TID 0000.0001)                 2.734046499619031E+05,      /* I =184 */
(PID.TID 0000.0001)                 2.646201463834826E+05,      /* I =185 */
(PID.TID 0000.0001)                 2.544372984215561E+05,      /* I =186 */
(PID.TID 0000.0001)                 2.426774358027003E+05,      /* I =187 */
(PID.TID 0000.0001)                 2.290479919481738E+05,      /* I =188 */
(PID.TID 0000.0001)                 2.130490056267208E+05,      /* I =189 */
(PID.TID 0000.0001)                 1.937548202849060E+05,      /* I =190 */
(PID.TID 0000.0001)                 1.691744868129062E+05,      /* I =191 */
(PID.TID 0000.0001)                 1.333130744933864E+05       /* I =192 */
(PID.TID 0000.0001)     ;
(PID.TID 0000.0001) dxV =  /* dxV(1,:,1,:) ( m - cartesian, degrees - spherical ) */
(PID.TID 0000.0001)                 8.015229982413632E+04,      /* J =  1 */
(PID.TID 0000.0001)                 1.362652340208229E+05,      /* J =  2 */
(PID.TID 0000.0001)                 1.701080315742101E+05,      /* J =  3 */
(PID.TID 0000.0001)                 1.942331448101592E+05,      /* J =  4 */
(PID.TID 0000.0001)                 2.133486626971531E+05,      /* J =  5 */
(PID.TID 0000.0001)                 2.292584591272880E+05,      /* J =  6 */
(PID.TID 0000.0001)                 2.428369969078989E+05,      /* J =  7 */
(PID.TID 0000.0001)                 2.545652950875683E+05,      /* J =  8 */
(PID.TID 0000.0001)                 2.647274964828301E+05,      /* J =  9 */
(PID.TID 0000.0001)                 2.734980225206389E+05,      /* J = 10 */
(PID.TID 0000.0001)                 2.809856491525217E+05,      /* J = 11 */
(PID.TID 0000.0001)                 2.872580915202295E+05,      /* J = 12 */
(PID.TID 0000.0001)                 2.923567890694162E+05,      /* J = 13 */
(PID.TID 0000.0001)                 2.963063101754721E+05,      /* J = 14 */
(PID.TID 0000.0001)                 2.991205495886625E+05,      /* J = 15 */
(PID.TID 0000.0001)                 3.008068453676764E+05,      /* J = 16 */
(PID.TID 0000.0001)                 3.013686170436881E+05,      /* J = 17 */
(PID.TID 0000.0001)                 3.008068453676764E+05,      /* J = 18 */
(PID.TID 0000.0001)                 2.991205495886625E+05,      /* J = 19 */
(PID.TID 0000.0001)                 2.963063101754721E+05,      /* J = 20 */
(PID.TID 0000.0001)                 2.923567890694162E+05,      /* J = 21 */
(PID.TID 0000.0001)                 2.872580915202295E+05,      /* J = 22 */
(PID.TID 0000.0001)                 2.809856491525217E+05,      /* J = 23 */
(PID.TID 0000.0001)                 2.734980225206389E+05,      /* J = 24 */
(PID.TID 0000.0001)                 2.647274964828301E+05,      /* J = 25 */
(PID.TID 0000.0001)                 2.545652950875683E+05,      /* J = 26 */
(PID.TID 0000.0001)                 2.428369969078989E+05,      /* J = 27 */
(PID.TID 0000.0001)                 2.292584591272880E+05,      /* J = 28 */
(PID.TID 0000.0001)                 2.133486626971531E+05,      /* J = 29 */
(PID.TID 0000.0001)                 1.942331448101592E+05,      /* J = 30 */
(PID.TID 0000.0001)                 1.701080315742101E+05,      /* J = 31 */
(PID.TID 0000.0001)                 1.362652340208229E+05       /* J = 32 */
(PID.TID 0000.0001)     ;
(PID.TID 0000.0001) dyU =  /* dyU(:,1,:,1) ( m - cartesian, degrees - spherical ) */
(PID.TID 0000.0001)                 8.015229982413632E+04,      /* I =  1 */
(PID.TID 0000.0001)                 1.362652340208229E+05,      /* I =  2 */
(PID.TID 0000.0001)                 1.701080315742101E+05,      /* I =  3 */
(PID.TID 0000.0001)                 1.942331448101592E+05,      /* I =  4 */
(PID.TID 0000.0001)                 2.133486626971531E+05,      /* I =  5 */
(PID.TID 0000.0001)                 2.292584591272880E+05,      /* I =  6 */
(PID.TID 0000.0001)                 2.428369969078989E+05,      /* I =  7 */
(PID.TID 0000.0001)                 2.545652950875683E+05,      /* I =  8 */
(PID.TID 0000.0001)                 2.647274964828301E+05,      /* I =  9 */
(PID.TID 0000.0001)                 2.734980225206389E+05,      /* I = 10 */
(PID.TID 0000.0001)                 2.809856491525217E+05,      /* I = 11 */
(PID.TID 0000.0001)                 2.872580915202295E+05,      /* I = 12 */
(PID.TID 0000.0001)                 2.923567890694162E+05,      /* I = 13 */
(PID.TID 0000.0001)                 2.963063101754721E+05,      /* I = 14 */
(PID.TID 0000.0001)                 2.991205495886625E+05,      /* I = 15 */
(PID.TID 0000.0001)                 3.008068453676764E+05,      /* I = 16 */
(PID.TID 0000.0001)                 3.013686170436881E+05,      /* I = 17 */
(PID.TID 0000.0001)                 3.008068453676764E+05,      /* I = 18 */
(PID.TID 0000.0001)                 2.991205495886625E+05,      /* I = 19 */
(PID.TID 0000.0001)                 2.963063101754721E+05,      /* I = 20 */
(PID.TID 0000.0001)                 2.923567890694162E+05,      /* I = 21 */
(PID.TID 0000.0001)                 2.872580915202295E+05,      /* I = 22 */
(PID.TID 0000.0001)                 2.809856491525217E+05,      /* I = 23 */
(PID.TID 0000.0001)                 2.734980225206389E+05,      /* I = 24 */
(PID.TID 0000.0001)                 2.647274964828301E+05,      /* I = 25 */
(PID.TID 0000.0001)                 2.545652950875683E+05,      /* I = 26 */
(PID.TID 0000.0001)                 2.428369969078989E+05,      /* I = 27 */
(PID.TID 0000.0001)                 2.292584591272880E+05,      /* I = 28 */
(PID.TID 0000.0001)                 2.133486626971531E+05,      /* I = 29 */
(PID.TID 0000.0001)                 1.942331448101592E+05,      /* I = 30 */
(PID.TID 0000.0001)                 1.701080315742101E+05,      /* I = 31 */
(PID.TID 0000.0001)                 1.362652340208229E+05,      /* I = 32 */
(PID.TID 0000.0001)                 8.015229982413632E+04,      /* I = 33 */
(PID.TID 0000.0001)                 1.362652340208229E+05,      /* I = 34 */
(PID.TID 0000.0001)                 1.701080315742101E+05,      /* I = 35 */
(PID.TID 0000.0001)                 1.942331448101592E+05,      /* I = 36 */
(PID.TID 0000.0001)                 2.133486626971531E+05,      /* I = 37 */
(PID.TID 0000.0001)                 2.292584591272880E+05,      /* I = 38 */
(PID.TID 0000.0001)                 2.428369969078989E+05,      /* I = 39 */
(PID.TID 0000.0001)                 2.545652950875683E+05,      /* I = 40 */
(PID.TID 0000.0001)                 2.647274964828301E+05,      /* I = 41 */
(PID.TID 0000.0001)                 2.734980225206389E+05,      /* I = 42 */
(PID.TID 0000.0001)                 2.809856491525217E+05,      /* I = 43 */
(PID.TID 0000.0001)                 2.872580915202295E+05,      /* I = 44 */
(PID.TID 0000.0001)                 2.923567890694162E+05,      /* I = 45 */
(PID.TID 0000.0001)                 2.963063101754721E+05,      /* I = 46 */
(PID.TID 0000.0001)                 2.991205495886625E+05,      /* I = 47 */
(PID.TID 0000.0001)                 3.008068453676764E+05,      /* I = 48 */
(PID.TID 0000.0001)                 3.013686170436881E+05,      /* I = 49 */
(PID.TID 0000.0001)                 3.008068453676764E+05,      /* I = 50 */
(PID.TID 0000.0001)                 2.991205495886625E+05,      /* I = 51 */
(PID.TID 0000.0001)                 2.963063101754721E+05,      /* I = 52 */
(PID.TID 0000.0001)                 2.923567890694162E+05,      /* I = 53 */
(PID.TID 0000.0001)                 2.872580915202295E+05,      /* I = 54 */
(PID.TID 0000.0001)                 2.809856491525217E+05,      /* I = 55 */
(PID.TID 0000.0001)                 2.734980225206389E+05,      /* I = 56 */
(PID.TID 0000.0001)                 2.647274964828301E+05,      /* I = 57 */
(PID.TID 0000.0001)                 2.545652950875683E+05,      /* I = 58 */
(PID.TID 0000.0001)                 2.428369969078989E+05,      /* I = 59 */
(PID.TID 0000.0001)                 2.292584591272880E+05,      /* I = 60 */
(PID.TID 0000.0001)                 2.133486626971531E+05,      /* I = 61 */
(PID.TID 0000.0001)                 1.942331448101592E+05,      /* I = 62 */
(PID.TID 0000.0001)                 1.701080315742101E+05,      /* I = 63 */
(PID.TID 0000.0001)                 1.362652340208229E+05,      /* I = 64 */
(PID.TID 0000.0001)                 8.015229982413632E+04,      /* I = 65 */
(PID.TID 0000.0001)                 1.362652340208229E+05,      /* I = 66 */
(PID.TID 0000.0001)                 1.701080315742101E+05,      /* I = 67 */
(PID.TID 0000.0001)                 1.942331448101592E+05,      /* I = 68 */
(PID.TID 0000.0001)                 2.133486626971531E+05,      /* I = 69 */
(PID.TID 0000.0001)                 2.292584591272880E+05,      /* I = 70 */
(PID.TID 0000.0001)                 2.428369969078989E+05,      /* I = 71 */
(PID.TID 0000.0001)                 2.545652950875683E+05,      /* I = 72 */
(PID.TID 0000.0001)                 2.647274964828301E+05,      /* I = 73 */
(PID.TID 0000.0001)                 2.734980225206389E+05,      /* I = 74 */
(PID.TID 0000.0001)                 2.809856491525217E+05,      /* I = 75 */
(PID.TID 0000.0001)                 2.872580915202295E+05,      /* I = 76 */
(PID.TID 0000.0001)                 2.923567890694162E+05,      /* I = 77 */
(PID.TID 0000.0001)                 2.963063101754721E+05,      /* I = 78 */
(PID.TID 0000.0001)                 2.991205495886625E+05,      /* I = 79 */
(PID.TID 0000.0001)                 3.008068453676764E+05,      /* I = 80 */
(PID.TID 0000.0001)                 3.013686170436881E+05,      /* I = 81 */
(PID.TID 0000.0001)                 3.008068453676764E+05,      /* I = 82 */
(PID.TID 0000.0001)                 2.991205495886625E+05,      /* I = 83 */
(PID.TID 0000.0001)                 2.963063101754721E+05,      /* I = 84 */
(PID.TID 0000.0001)                 2.923567890694162E+05,      /* I = 85 */
(PID.TID 0000.0001)                 2.872580915202295E+05,      /* I = 86 */
(PID.TID 0000.0001)                 2.809856491525217E+05,      /* I = 87 */
(PID.TID 0000.0001)                 2.734980225206389E+05,      /* I = 88 */
(PID.TID 0000.0001)                 2.647274964828301E+05,      /* I = 89 */
(PID.TID 0000.0001)                 2.545652950875683E+05,      /* I = 90 */
(PID.TID 0000.0001)                 2.428369969078989E+05,      /* I = 91 */
(PID.TID 0000.0001)                 2.292584591272880E+05,      /* I = 92 */
(PID.TID 0000.0001)                 2.133486626971531E+05,      /* I = 93 */
(PID.TID 0000.0001)                 1.942331448101592E+05,      /* I = 94 */
(PID.TID 0000.0001)                 1.701080315742101E+05,      /* I = 95 */
(PID.TID 0000.0001)                 1.362652340208229E+05,      /* I = 96 */
(PID.TID 0000.0001)                 8.015229982413632E+04,      /* I = 97 */
(PID.TID 0000.0001)                 1.362652340208229E+05,      /* I = 98 */
(PID.TID 0000.0001)                 1.701080315742101E+05,      /* I = 99 */
(PID.TID 0000.0001)                 1.942331448101592E+05,      /* I =100 */
(PID.TID 0000.0001)                 2.133486626971531E+05,      /* I =101 */
(PID.TID 0000.0001)                 2.292584591272880E+05,      /* I =102 */
(PID.TID 0000.0001)                 2.428369969078989E+05,      /* I =103 */
(PID.TID 0000.0001)                 2.545652950875683E+05,      /* I =104 */
(PID.TID 0000.0001)                 2.647274964828301E+05,      /* I =105 */
(PID.TID 0000.0001)                 2.734980225206389E+05,      /* I =106 */
(PID.TID 0000.0001)                 2.809856491525217E+05,      /* I =107 */
(PID.TID 0000.0001)                 2.872580915202295E+05,      /* I =108 */
(PID.TID 0000.0001)                 2.923567890694162E+05,      /* I =109 */
(PID.TID 0000.0001)                 2.963063101754721E+05,      /* I =110 */
(PID.TID 0000.0001)                 2.991205495886625E+05,      /* I =111 */
(PID.TID 0000.0001)                 3.008068453676764E+05,      /* I =112 */
(PID.TID 0000.0001)                 3.013686170436881E+05,      /* I =113 */
(PID.TID 0000.0001)                 3.008068453676764E+05,      /* I =114 */
(PID.TID 0000.0001)                 2.991205495886625E+05,      /* I =115 */
(PID.TID 0000.0001)                 2.963063101754721E+05,      /* I =116 */
(PID.TID 0000.0001)                 2.923567890694162E+05,      /* I =117 */
(PID.TID 0000.0001)                 2.872580915202295E+05,      /* I =118 */
(PID.TID 0000.0001)                 2.809856491525217E+05,      /* I =119 */
(PID.TID 0000.0001)                 2.734980225206389E+05,      /* I =120 */
(PID.TID 0000.0001)                 2.647274964828301E+05,      /* I =121 */
(PID.TID 0000.0001)                 2.545652950875683E+05,      /* I =122 */
(PID.TID 0000.0001)                 2.428369969078989E+05,      /* I =123 */
(PID.TID 0000.0001)                 2.292584591272880E+05,      /* I =124 */
(PID.TID 0000.0001)                 2.133486626971531E+05,      /* I =125 */
(PID.TID 0000.0001)                 1.942331448101592E+05,      /* I =126 */
(PID.TID 0000.0001)                 1.701080315742101E+05,      /* I =127 */
(PID.TID 0000.0001)                 1.362652340208229E+05,      /* I =128 */
(PID.TID 0000.0001)                 8.015229982413632E+04,      /* I =129 */
(PID.TID 0000.0001)                 1.362652340208229E+05,      /* I =130 */
(PID.TID 0000.0001)                 1.701080315742101E+05,      /* I =131 */
(PID.TID 0000.0001)                 1.942331448101592E+05,      /* I =132 */
(PID.TID 0000.0001)                 2.133486626971531E+05,      /* I =133 */
(PID.TID 0000.0001)                 2.292584591272880E+05,      /* I =134 */
(PID.TID 0000.0001)                 2.428369969078989E+05,      /* I =135 */
(PID.TID 0000.0001)                 2.545652950875683E+05,      /* I =136 */
(PID.TID 0000.0001)                 2.647274964828301E+05,      /* I =137 */
(PID.TID 0000.0001)                 2.734980225206389E+05,      /* I =138 */
(PID.TID 0000.0001)                 2.809856491525217E+05,      /* I =139 */
(PID.TID 0000.0001)                 2.872580915202295E+05,      /* I =140 */
(PID.TID 0000.0001)                 2.923567890694162E+05,      /* I =141 */
(PID.TID 0000.0001)                 2.963063101754721E+05,      /* I =142 */
(PID.TID 0000.0001)                 2.991205495886625E+05,      /* I =143 */
(PID.TID 0000.0001)                 3.008068453676764E+05,      /* I =144 */
(PID.TID 0000.0001)                 3.013686170436881E+05,      /* I =145 */
(PID.TID 0000.0001)                 3.008068453676764E+05,      /* I =146 */
(PID.TID 0000.0001)                 2.991205495886625E+05,      /* I =147 */
(PID.TID 0000.0001)                 2.963063101754721E+05,      /* I =148 */
(PID.TID 0000.0001)                 2.923567890694162E+05,      /* I =149 */
(PID.TID 0000.0001)                 2.872580915202295E+05,      /* I =150 */
(PID.TID 0000.0001)                 2.809856491525217E+05,      /* I =151 */
(PID.TID 0000.0001)                 2.734980225206389E+05,      /* I =152 */
(PID.TID 0000.0001)                 2.647274964828301E+05,      /* I =153 */
(PID.TID 0000.0001)                 2.545652950875683E+05,      /* I =154 */
(PID.TID 0000.0001)                 2.428369969078989E+05,      /* I =155 */
(PID.TID 0000.0001)                 2.292584591272880E+05,      /* I =156 */
(PID.TID 0000.0001)                 2.133486626971531E+05,      /* I =157 */
(PID.TID 0000.0001)                 1.942331448101592E+05,      /* I =158 */
(PID.TID 0000.0001)                 1.701080315742101E+05,      /* I =159 */
(PID.TID 0000.0001)                 1.362652340208229E+05,      /* I =160 */
(PID.TID 0000.0001)                 8.015229982413632E+04,      /* I =161 */
(PID.TID 0000.0001)                 1.362652340208229E+05,      /* I =162 */
(PID.TID 0000.0001)                 1.701080315742101E+05,      /* I =163 */
(PID.TID 0000.0001)                 1.942331448101592E+05,      /* I =164 */
(PID.TID 0000.0001)                 2.133486626971531E+05,      /* I =165 */
(PID.TID 0000.0001)                 2.292584591272880E+05,      /* I =166 */
(PID.TID 0000.0001)                 2.428369969078989E+05,      /* I =167 */
(PID.TID 0000.0001)                 2.545652950875683E+05,      /* I =168 */
(PID.TID 0000.0001)                 2.647274964828301E+05,      /* I =169 */
(PID.TID 0000.0001)                 2.734980225206389E+05,      /* I =170 */
(PID.TID 0000.0001)                 2.809856491525217E+05,      /* I =171 */
(PID.TID 0000.0001)                 2.872580915202295E+05,      /* I =172 */
(PID.TID 0000.0001)                 2.923567890694162E+05,      /* I =173 */
(PID.TID 0000.0001)                 2.963063101754721E+05,      /* I =174 */
(PID.TID 0000.0001)                 2.991205495886625E+05,      /* I =175 */
(PID.TID 0000.0001)                 3.008068453676764E+05,      /* I =176 */
(PID.TID 0000.0001)                 3.013686170436881E+05,      /* I =177 */
(PID.TID 0000.0001)                 3.008068453676764E+05,      /* I =178 */
(PID.TID 0000.0001)                 2.991205495886625E+05,      /* I =179 */
(PID.TID 0000.0001)                 2.963063101754721E+05,      /* I =180 */
(PID.TID 0000.0001)                 2.923567890694162E+05,      /* I =181 */
(PID.TID 0000.0001)                 2.872580915202295E+05,      /* I =182 */
(PID.TID 0000.0001)                 2.809856491525217E+05,      /* I =183 */
(PID.TID 0000.0001)                 2.734980225206389E+05,      /* I =184 */
(PID.TID 0000.0001)                 2.647274964828301E+05,      /* I =185 */
(PID.TID 0000.0001)                 2.545652950875683E+05,      /* I =186 */
(PID.TID 0000.0001)                 2.428369969078989E+05,      /* I =187 */
(PID.TID 0000.0001)                 2.292584591272880E+05,      /* I =188 */
(PID.TID 0000.0001)                 2.133486626971531E+05,      /* I =189 */
(PID.TID 0000.0001)                 1.942331448101592E+05,      /* I =190 */
(PID.TID 0000.0001)                 1.701080315742101E+05,      /* I =191 */
(PID.TID 0000.0001)                 1.362652340208229E+05       /* I =192 */
(PID.TID 0000.0001)     ;
(PID.TID 0000.0001) dyU =  /* dyU(1,:,1,:) ( m - cartesian, degrees - spherical ) */
(PID.TID 0000.0001)                 8.015229982413632E+04,      /* J =  1 */
(PID.TID 0000.0001)                 1.333130744933864E+05,      /* J =  2 */
(PID.TID 0000.0001)                 1.691744868129062E+05,      /* J =  3 */
(PID.TID 0000.0001)                 1.937548202849060E+05,      /* J =  4 */
(PID.TID 0000.0001)                 2.130490056267208E+05,      /* J =  5 */
(PID.TID 0000.0001)                 2.290479919481738E+05,      /* J =  6 */
(PID.TID 0000.0001)                 2.426774358027003E+05,      /* J =  7 */
(PID.TID 0000.0001)                 2.544372984215561E+05,      /* J =  8 */
(PID.TID 0000.0001)                 2.646201463834826E+05,      /* J =  9 */
(PID.TID 0000.0001)                 2.734046499619031E+05,      /* J = 10 */
(PID.TID 0000.0001)                 2.809019351693761E+05,      /* J = 11 */
(PID.TID 0000.0001)                 2.871811105274442E+05,      /* J = 12 */
(PID.TID 0000.0001)                 2.922844849381675E+05,      /* J = 13 */
(PID.TID 0000.0001)                 2.962371870847826E+05,      /* J = 14 */
(PID.TID 0000.0001)                 2.990534755671296E+05,      /* J = 15 */
(PID.TID 0000.0001)                 3.007409169495504E+05,      /* J = 16 */
(PID.TID 0000.0001)                 3.013031486919771E+05,      /* J = 17 */
(PID.TID 0000.0001)                 3.007409169495504E+05,      /* J = 18 */
(PID.TID 0000.0001)                 2.990534755671296E+05,      /* J = 19 */
(PID.TID 0000.0001)                 2.962371870847826E+05,      /* J = 20 */
(PID.TID 0000.0001)                 2.922844849381675E+05,      /* J = 21 */
(PID.TID 0000.0001)                 2.871811105274442E+05,      /* J = 22 */
(PID.TID 0000.0001)                 2.809019351693761E+05,      /* J = 23 */
(PID.TID 0000.0001)                 2.734046499619031E+05,      /* J = 24 */
(PID.TID 0000.0001)                 2.646201463834826E+05,      /* J = 25 */
(PID.TID 0000.0001)                 2.544372984215561E+05,      /* J = 26 */
(PID.TID 0000.0001)                 2.426774358027003E+05,      /* J = 27 */
(PID.TID 0000.0001)                 2.290479919481738E+05,      /* J = 28 */
(PID.TID 0000.0001)                 2.130490056267208E+05,      /* J = 29 */
(PID.TID 0000.0001)                 1.937548202849060E+05,      /* J = 30 */
(PID.TID 0000.0001)                 1.691744868129062E+05,      /* J = 31 */
(PID.TID 0000.0001)                 1.333130744933864E+05       /* J = 32 */
(PID.TID 0000.0001)     ;
(PID.TID 0000.0001) rA =  /* rA(:,1,:,1) ( m - cartesian, degrees - spherical ) */
(PID.TID 0000.0001)                 1.401900702255611E+10,      /* I =  1 */
(PID.TID 0000.0001)                 2.459906945574446E+10,      /* I =  2 */
(PID.TID 0000.0001)                 3.378518544307869E+10,      /* I =  3 */
(PID.TID 0000.0001)                 4.192037169898667E+10,      /* I =  4 */
(PID.TID 0000.0001)                 4.925938996118163E+10,      /* I =  5 */
(PID.TID 0000.0001)                 5.594154126607553E+10,      /* I =  6 */
(PID.TID 0000.0001)                 6.203683527772523E+10,      /* I =  7 */
(PID.TID 0000.0001)                 6.757541173817516E+10,      /* I =  8 */
(PID.TID 0000.0001)                 7.256353271748119E+10,      /* I =  9 */
(PID.TID 0000.0001)                 7.699293007098555E+10,      /* I = 10 */
(PID.TID 0000.0001)                 8.084683449728902E+10,      /* I = 11 */
(PID.TID 0000.0001)                 8.410423102796223E+10,      /* I = 12 */
(PID.TID 0000.0001)                 8.674306976737517E+10,      /* I = 13 */
(PID.TID 0000.0001)                 8.874277443041928E+10,      /* I = 14 */
(PID.TID 0000.0001)                 9.008620045350865E+10,      /* I = 15 */
(PID.TID 0000.0001)                 9.076111290418457E+10,      /* I = 16 */
(PID.TID 0000.0001)                 9.076111290422060E+10,      /* I = 17 */
(PID.TID 0000.0001)                 9.008620045354469E+10,      /* I = 18 */
(PID.TID 0000.0001)                 8.874277443041928E+10,      /* I = 19 */
(PID.TID 0000.0001)                 8.674306976741121E+10,      /* I = 20 */
(PID.TID 0000.0001)                 8.410423102799828E+10,      /* I = 21 */
(PID.TID 0000.0001)                 8.084683449728902E+10,      /* I = 22 */
(PID.TID 0000.0001)                 7.699293007098555E+10,      /* I = 23 */
(PID.TID 0000.0001)                 7.256353271748119E+10,      /* I = 24 */
(PID.TID 0000.0001)                 6.757541173817516E+10,      /* I = 25 */
(PID.TID 0000.0001)                 6.203683527772523E+10,      /* I = 26 */
(PID.TID 0000.0001)                 5.594154126611156E+10,      /* I = 27 */
(PID.TID 0000.0001)                 4.925938996118163E+10,      /* I = 28 */
(PID.TID 0000.0001)                 4.192037169898667E+10,      /* I = 29 */
(PID.TID 0000.0001)                 3.378518544304265E+10,      /* I = 30 */
(PID.TID 0000.0001)                 2.459906945574446E+10,      /* I = 31 */
(PID.TID 0000.0001)                 1.401900702259215E+10,      /* I = 32 */
(PID.TID 0000.0001)                 1.401900702255611E+10,      /* I = 33 */
(PID.TID 0000.0001)                 2.459906945574446E+10,      /* I = 34 */
(PID.TID 0000.0001)                 3.378518544307869E+10,      /* I = 35 */
(PID.TID 0000.0001)                 4.192037169898667E+10,      /* I = 36 */
(PID.TID 0000.0001)                 4.925938996118163E+10,      /* I = 37 */
(PID.TID 0000.0001)                 5.594154126607553E+10,      /* I = 38 */
(PID.TID 0000.0001)                 6.203683527772523E+10,      /* I = 39 */
(PID.TID 0000.0001)                 6.757541173817516E+10,      /* I = 40 */
(PID.TID 0000.0001)                 7.256353271748119E+10,      /* I = 41 */
(PID.TID 0000.0001)                 7.699293007098555E+10,      /* I = 42 */
(PID.TID 0000.0001)                 8.084683449728902E+10,      /* I = 43 */
(PID.TID 0000.0001)                 8.410423102796223E+10,      /* I = 44 */
(PID.TID 0000.0001)                 8.674306976737517E+10,      /* I = 45 */
(PID.TID 0000.0001)                 8.874277443041928E+10,      /* I = 46 */
(PID.TID 0000.0001)                 9.008620045350865E+10,      /* I = 47 */
(PID.TID 0000.0001)                 9.076111290418457E+10,      /* I = 48 */
(PID.TID 0000.0001)                 9.076111290422060E+10,      /* I = 49 */
(PID.TID 0000.0001)                 9.008620045354469E+10,      /* I = 50 */
(PID.TID 0000.0001)                 8.874277443041928E+10,      /* I = 51 */
(PID.TID 0000.0001)                 8.674306976741121E+10,      /* I = 52 */
(PID.TID 0000.0001)                 8.410423102799828E+10,      /* I = 53 */
(PID.TID 0000.0001)                 8.084683449728902E+10,      /* I = 54 */
(PID.TID 0000.0001)                 7.699293007098555E+10,      /* I = 55 */
(PID.TID 0000.0001)                 7.256353271748119E+10,      /* I = 56 */
(PID.TID 0000.0001)                 6.757541173817516E+10,      /* I = 57 */
(PID.TID 0000.0001)                 6.203683527772523E+10,      /* I = 58 */
(PID.TID 0000.0001)                 5.594154126611156E+10,      /* I = 59 */
(PID.TID 0000.0001)                 4.925938996118163E+10,      /* I = 60 */
(PID.TID 0000.0001)                 4.192037169898667E+10,      /* I = 61 */
(PID.TID 0000.0001)                 3.378518544304265E+10,      /* I = 62 */
(PID.TID 0000.0001)                 2.459906945574446E+10,      /* I = 63 */
(PID.TID 0000.0001)                 1.401900702259215E+10,      /* I = 64 */
(PID.TID 0000.0001)                 1.401900702255611E+10,      /* I = 65 */
(PID.TID 0000.0001)                 2.459906945574446E+10,      /* I = 66 */
(PID.TID 0000.0001)                 3.378518544307869E+10,      /* I = 67 */
(PID.TID 0000.0001)                 4.192037169898667E+10,      /* I = 68 */
(PID.TID 0000.0001)                 4.925938996118163E+10,      /* I = 69 */
(PID.TID 0000.0001)                 5.594154126607553E+10,      /* I = 70 */
(PID.TID 0000.0001)                 6.203683527772523E+10,      /* I = 71 */
(PID.TID 0000.0001)                 6.757541173817516E+10,      /* I = 72 */
(PID.TID 0000.0001)                 7.256353271748119E+10,      /* I = 73 */
(PID.TID 0000.0001)                 7.699293007098555E+10,      /* I = 74 */
(PID.TID 0000.0001)                 8.084683449728902E+10,      /* I = 75 */
(PID.TID 0000.0001)                 8.410423102796223E+10,      /* I = 76 */
(PID.TID 0000.0001)                 8.674306976737517E+10,      /* I = 77 */
(PID.TID 0000.0001)                 8.874277443041928E+10,      /* I = 78 */
(PID.TID 0000.0001)                 9.008620045350865E+10,      /* I = 79 */
(PID.TID 0000.0001)                 9.076111290418457E+10,      /* I = 80 */
(PID.TID 0000.0001)                 9.076111290422060E+10,      /* I = 81 */
(PID.TID 0000.0001)                 9.008620045354469E+10,      /* I = 82 */
(PID.TID 0000.0001)                 8.874277443041928E+10,      /* I = 83 */
(PID.TID 0000.0001)                 8.674306976741121E+10,      /* I = 84 */
(PID.TID 0000.0001)                 8.410423102799828E+10,      /* I = 85 */
(PID.TID 0000.0001)                 8.084683449728902E+10,      /* I = 86 */
(PID.TID 0000.0001)                 7.699293007098555E+10,      /* I = 87 */
(PID.TID 0000.0001)                 7.256353271748119E+10,      /* I = 88 */
(PID.TID 0000.0001)                 6.757541173817516E+10,      /* I = 89 */
(PID.TID 0000.0001)                 6.203683527772523E+10,      /* I = 90 */
(PID.TID 0000.0001)                 5.594154126611156E+10,      /* I = 91 */
(PID.TID 0000.0001)                 4.925938996118163E+10,      /* I = 92 */
(PID.TID 0000.0001)                 4.192037169898667E+10,      /* I = 93 */
(PID.TID 0000.0001)                 3.378518544304265E+10,      /* I = 94 */
(PID.TID 0000.0001)                 2.459906945574446E+10,      /* I = 95 */
(PID.TID 0000.0001)                 1.401900702259215E+10,      /* I = 96 */
(PID.TID 0000.0001)                 1.401900702255611E+10,      /* I = 97 */
(PID.TID 0000.0001)                 2.459906945574446E+10,      /* I = 98 */
(PID.TID 0000.0001)                 3.378518544307869E+10,      /* I = 99 */
(PID.TID 0000.0001)                 4.192037169898667E+10,      /* I =100 */
(PID.TID 0000.0001)                 4.925938996118163E+10,      /* I =101 */
(PID.TID 0000.0001)                 5.594154126607553E+10,      /* I =102 */
(PID.TID 0000.0001)                 6.203683527772523E+10,      /* I =103 */
(PID.TID 0000.0001)                 6.757541173817516E+10,      /* I =104 */
(PID.TID 0000.0001)                 7.256353271748119E+10,      /* I =105 */
(PID.TID 0000.0001)                 7.699293007098555E+10,      /* I =106 */
(PID.TID 0000.0001)                 8.084683449728902E+10,      /* I =107 */
(PID.TID 0000.0001)                 8.410423102796223E+10,      /* I =108 */
(PID.TID 0000.0001)                 8.674306976737517E+10,      /* I =109 */
(PID.TID 0000.0001)                 8.874277443041928E+10,      /* I =110 */
(PID.TID 0000.0001)                 9.008620045350865E+10,      /* I =111 */
(PID.TID 0000.0001)                 9.076111290418457E+10,      /* I =112 */
(PID.TID 0000.0001)                 9.076111290422060E+10,      /* I =113 */
(PID.TID 0000.0001)                 9.008620045354469E+10,      /* I =114 */
(PID.TID 0000.0001)                 8.874277443041928E+10,      /* I =115 */
(PID.TID 0000.0001)                 8.674306976741121E+10,      /* I =116 */
(PID.TID 0000.0001)                 8.410423102799828E+10,      /* I =117 */
(PID.TID 0000.0001)                 8.084683449728902E+10,      /* I =118 */
(PID.TID 0000.0001)                 7.699293007098555E+10,      /* I =119 */
(PID.TID 0000.0001)                 7.256353271748119E+10,      /* I =120 */
(PID.TID 0000.0001)                 6.757541173817516E+10,      /* I =121 */
(PID.TID 0000.0001)                 6.203683527772523E+10,      /* I =122 */
(PID.TID 0000.0001)                 5.594154126611156E+10,      /* I =123 */
(PID.TID 0000.0001)                 4.925938996118163E+10,      /* I =124 */
(PID.TID 0000.0001)                 4.192037169898667E+10,      /* I =125 */
(PID.TID 0000.0001)                 3.378518544304265E+10,      /* I =126 */
(PID.TID 0000.0001)                 2.459906945574446E+10,      /* I =127 */
(PID.TID 0000.0001)                 1.401900702259215E+10,      /* I =128 */
(PID.TID 0000.0001)                 1.401900702255611E+10,      /* I =129 */
(PID.TID 0000.0001)                 2.459906945574446E+10,      /* I =130 */
(PID.TID 0000.0001)                 3.378518544307869E+10,      /* I =131 */
(PID.TID 0000.0001)                 4.192037169898667E+10,      /* I =132 */
(PID.TID 0000.0001)                 4.925938996118163E+10,      /* I =133 */
(PID.TID 0000.0001)                 5.594154126607553E+10,      /* I =134 */
(PID.TID 0000.0001)                 6.203683527772523E+10,      /* I =135 */
(PID.TID 0000.0001)                 6.757541173817516E+10,      /* I =136 */
(PID.TID 0000.0001)                 7.256353271748119E+10,      /* I =137 */
(PID.TID 0000.0001)                 7.699293007098555E+10,      /* I =138 */
(PID.TID 0000.0001)                 8.084683449728902E+10,      /* I =139 */
(PID.TID 0000.0001)                 8.410423102796223E+10,      /* I =140 */
(PID.TID 0000.0001)                 8.674306976737517E+10,      /* I =141 */
(PID.TID 0000.0001)                 8.874277443041928E+10,      /* I =142 */
(PID.TID 0000.0001)                 9.008620045350865E+10,      /* I =143 */
(PID.TID 0000.0001)                 9.076111290418457E+10,      /* I =144 */
(PID.TID 0000.0001)                 9.076111290422060E+10,      /* I =145 */
(PID.TID 0000.0001)                 9.008620045354469E+10,      /* I =146 */
(PID.TID 0000.0001)                 8.874277443041928E+10,      /* I =147 */
(PID.TID 0000.0001)                 8.674306976741121E+10,      /* I =148 */
(PID.TID 0000.0001)                 8.410423102799828E+10,      /* I =149 */
(PID.TID 0000.0001)                 8.084683449728902E+10,      /* I =150 */
(PID.TID 0000.0001)                 7.699293007098555E+10,      /* I =151 */
(PID.TID 0000.0001)                 7.256353271748119E+10,      /* I =152 */
(PID.TID 0000.0001)                 6.757541173817516E+10,      /* I =153 */
(PID.TID 0000.0001)                 6.203683527772523E+10,      /* I =154 */
(PID.TID 0000.0001)                 5.594154126611156E+10,      /* I =155 */
(PID.TID 0000.0001)                 4.925938996118163E+10,      /* I =156 */
(PID.TID 0000.0001)                 4.192037169898667E+10,      /* I =157 */
(PID.TID 0000.0001)                 3.378518544304265E+10,      /* I =158 */
(PID.TID 0000.0001)                 2.459906945574446E+10,      /* I =159 */
(PID.TID 0000.0001)                 1.401900702259215E+10,      /* I =160 */
(PID.TID 0000.0001)                 1.401900702255611E+10,      /* I =161 */
(PID.TID 0000.0001)                 2.459906945574446E+10,      /* I =162 */
(PID.TID 0000.0001)                 3.378518544307869E+10,      /* I =163 */
(PID.TID 0000.0001)                 4.192037169898667E+10,      /* I =164 */
(PID.TID 0000.0001)                 4.925938996118163E+10,      /* I =165 */
(PID.TID 0000.0001)                 5.594154126607553E+10,      /* I =166 */
(PID.TID 0000.0001)                 6.203683527772523E+10,      /* I =167 */
(PID.TID 0000.0001)                 6.757541173817516E+10,      /* I =168 */
(PID.TID 0000.0001)                 7.256353271748119E+10,      /* I =169 */
(PID.TID 0000.0001)                 7.699293007098555E+10,      /* I =170 */
(PID.TID 0000.0001)                 8.084683449728902E+10,      /* I =171 */
(PID.TID 0000.0001)                 8.410423102796223E+10,      /* I =172 */
(PID.TID 0000.0001)                 8.674306976737517E+10,      /* I =173 */
(PID.TID 0000.0001)                 8.874277443041928E+10,      /* I =174 */
(PID.TID 0000.0001)                 9.008620045350865E+10,      /* I =175 */
(PID.TID 0000.0001)                 9.076111290418457E+10,      /* I =176 */
(PID.TID 0000.0001)                 9.076111290422060E+10,      /* I =177 */
(PID.TID 0000.0001)                 9.008620045354469E+10,      /* I =178 */
(PID.TID 0000.0001)                 8.874277443041928E+10,      /* I =179 */
(PID.TID 0000.0001)                 8.674306976741121E+10,      /* I =180 */
(PID.TID 0000.0001)                 8.410423102799828E+10,      /* I =181 */
(PID.TID 0000.0001)                 8.084683449728902E+10,      /* I =182 */
(PID.TID 0000.0001)                 7.699293007098555E+10,      /* I =183 */
(PID.TID 0000.0001)                 7.256353271748119E+10,      /* I =184 */
(PID.TID 0000.0001)                 6.757541173817516E+10,      /* I =185 */
(PID.TID 0000.0001)                 6.203683527772523E+10,      /* I =186 */
(PID.TID 0000.0001)                 5.594154126611156E+10,      /* I =187 */
(PID.TID 0000.0001)                 4.925938996118163E+10,      /* I =188 */
(PID.TID 0000.0001)                 4.192037169898667E+10,      /* I =189 */
(PID.TID 0000.0001)                 3.378518544304265E+10,      /* I =190 */
(PID.TID 0000.0001)                 2.459906945574446E+10,      /* I =191 */
(PID.TID 0000.0001)                 1.401900702259215E+10       /* I =192 */
(PID.TID 0000.0001)     ;
(PID.TID 0000.0001) rA =  /* rA(1,:,1,:) ( m - cartesian, degrees - spherical ) */
(PID.TID 0000.0001)                 1.401900702255611E+10,      /* J =  1 */
(PID.TID 0000.0001)                 2.459906945574446E+10,      /* J =  2 */
(PID.TID 0000.0001)                 3.378518544307869E+10,      /* J =  3 */
(PID.TID 0000.0001)                 4.192037169898667E+10,      /* J =  4 */
(PID.TID 0000.0001)                 4.925938996118163E+10,      /* J =  5 */
(PID.TID 0000.0001)                 5.594154126607553E+10,      /* J =  6 */
(PID.TID 0000.0001)                 6.203683527776127E+10,      /* J =  7 */
(PID.TID 0000.0001)                 6.757541173817516E+10,      /* J =  8 */
(PID.TID 0000.0001)                 7.256353271748119E+10,      /* J =  9 */
(PID.TID 0000.0001)                 7.699293007098555E+10,      /* J = 10 */
(PID.TID 0000.0001)                 8.084683449728902E+10,      /* J = 11 */
(PID.TID 0000.0001)                 8.410423102799828E+10,      /* J = 12 */
(PID.TID 0000.0001)                 8.674306976737517E+10,      /* J = 13 */
(PID.TID 0000.0001)                 8.874277443041928E+10,      /* J = 14 */
(PID.TID 0000.0001)                 9.008620045350865E+10,      /* J = 15 */
(PID.TID 0000.0001)                 9.076111290418457E+10,      /* J = 16 */
(PID.TID 0000.0001)                 9.076111290422060E+10,      /* J = 17 */
(PID.TID 0000.0001)                 9.008620045354469E+10,      /* J = 18 */
(PID.TID 0000.0001)                 8.874277443041928E+10,      /* J = 19 */
(PID.TID 0000.0001)                 8.674306976737517E+10,      /* J = 20 */
(PID.TID 0000.0001)                 8.410423102799828E+10,      /* J = 21 */
(PID.TID 0000.0001)                 8.084683449728902E+10,      /* J = 22 */
(PID.TID 0000.0001)                 7.699293007098555E+10,      /* J = 23 */
(PID.TID 0000.0001)                 7.256353271748119E+10,      /* J = 24 */
(PID.TID 0000.0001)                 6.757541173817516E+10,      /* J = 25 */
(PID.TID 0000.0001)                 6.203683527772523E+10,      /* J = 26 */
(PID.TID 0000.0001)                 5.594154126607553E+10,      /* J = 27 */
(PID.TID 0000.0001)                 4.925938996118163E+10,      /* J = 28 */
(PID.TID 0000.0001)                 4.192037169898667E+10,      /* J = 29 */
(PID.TID 0000.0001)                 3.378518544307869E+10,      /* J = 30 */
(PID.TID 0000.0001)                 2.459906945574446E+10,      /* J = 31 */
(PID.TID 0000.0001)                 1.401900702259215E+10       /* J = 32 */
(PID.TID 0000.0001)     ;
(PID.TID 0000.0001) rAw =  /* rAw(:,1,:,1) ( m - cartesian, degrees - spherical ) */
(PID.TID 0000.0001)                 1.216690346714270E+10,      /* I =  1 */
(PID.TID 0000.0001)                 1.974052138506315E+10,      /* I =  2 */
(PID.TID 0000.0001)                 2.943712825252015E+10,      /* I =  3 */
(PID.TID 0000.0001)                 3.801790263324359E+10,      /* I =  4 */
(PID.TID 0000.0001)                 4.571243814189866E+10,      /* I =  5 */
(PID.TID 0000.0001)                 5.269930713599979E+10,      /* I =  6 */
(PID.TID 0000.0001)                 5.907428494299063E+10,      /* I =  7 */
(PID.TID 0000.0001)                 6.488320895111514E+10,      /* I =  8 */
(PID.TID 0000.0001)                 7.014205907741882E+10,      /* I =  9 */
(PID.TID 0000.0001)                 7.484854821847499E+10,      /* I = 10 */
(PID.TID 0000.0001)                 7.898934631431560E+10,      /* I = 11 */
(PID.TID 0000.0001)                 8.254500894894537E+10,      /* I = 12 */
(PID.TID 0000.0001)                 8.549360686473492E+10,      /* I = 13 */
(PID.TID 0000.0001)                 8.781353403175085E+10,      /* I = 14 */
(PID.TID 0000.0001)                 8.948571540392021E+10,      /* I = 15 */
(PID.TID 0000.0001)                 9.049530583086168E+10,      /* I = 16 */
(PID.TID 0000.0001)                 9.083293515008307E+10,      /* I = 17 */
(PID.TID 0000.0001)                 9.049530583087070E+10,      /* I = 18 */
(PID.TID 0000.0001)                 8.948571540391121E+10,      /* I = 19 */
(PID.TID 0000.0001)                 8.781353403174185E+10,      /* I = 20 */
(PID.TID 0000.0001)                 8.549360686467184E+10,      /* I = 21 */
(PID.TID 0000.0001)                 8.254500894890933E+10,      /* I = 22 */
(PID.TID 0000.0001)                 7.898934631434262E+10,      /* I = 23 */
(PID.TID 0000.0001)                 7.484854821844795E+10,      /* I = 24 */
(PID.TID 0000.0001)                 7.014205907742783E+10,      /* I = 25 */
(PID.TID 0000.0001)                 6.488320895111514E+10,      /* I = 26 */
(PID.TID 0000.0001)                 5.907428494299063E+10,      /* I = 27 */
(PID.TID 0000.0001)                 5.269930713599078E+10,      /* I = 28 */
(PID.TID 0000.0001)                 4.571243814190767E+10,      /* I = 29 */
(PID.TID 0000.0001)                 3.801790263325260E+10,      /* I = 30 */
(PID.TID 0000.0001)                 2.943712825251114E+10,      /* I = 31 */
(PID.TID 0000.0001)                 1.974052138509018E+10,      /* I = 32 */
(PID.TID 0000.0001)                 1.216690346714270E+10,      /* I = 33 */
(PID.TID 0000.0001)                 1.974052138506315E+10,      /* I = 34 */
(PID.TID 0000.0001)                 2.943712825252015E+10,      /* I = 35 */
(PID.TID 0000.0001)                 3.801790263324359E+10,      /* I = 36 */
(PID.TID 0000.0001)                 4.571243814189866E+10,      /* I = 37 */
(PID.TID 0000.0001)                 5.269930713599979E+10,      /* I = 38 */
(PID.TID 0000.0001)                 5.907428494299063E+10,      /* I = 39 */
(PID.TID 0000.0001)                 6.488320895111514E+10,      /* I = 40 */
(PID.TID 0000.0001)                 7.014205907741882E+10,      /* I = 41 */
(PID.TID 0000.0001)                 7.484854821847499E+10,      /* I = 42 */
(PID.TID 0000.0001)                 7.898934631431560E+10,      /* I = 43 */
(PID.TID 0000.0001)                 8.254500894894537E+10,      /* I = 44 */
(PID.TID 0000.0001)                 8.549360686473492E+10,      /* I = 45 */
(PID.TID 0000.0001)                 8.781353403175085E+10,      /* I = 46 */
(PID.TID 0000.0001)                 8.948571540392021E+10,      /* I = 47 */
(PID.TID 0000.0001)                 9.049530583086168E+10,      /* I = 48 */
(PID.TID 0000.0001)                 9.083293515008307E+10,      /* I = 49 */
(PID.TID 0000.0001)                 9.049530583087070E+10,      /* I = 50 */
(PID.TID 0000.0001)                 8.948571540391121E+10,      /* I = 51 */
(PID.TID 0000.0001)                 8.781353403174185E+10,      /* I = 52 */
(PID.TID 0000.0001)                 8.549360686467184E+10,      /* I = 53 */
(PID.TID 0000.0001)                 8.254500894890933E+10,      /* I = 54 */
(PID.TID 0000.0001)                 7.898934631434262E+10,      /* I = 55 */
(PID.TID 0000.0001)                 7.484854821844795E+10,      /* I = 56 */
(PID.TID 0000.0001)                 7.014205907742783E+10,      /* I = 57 */
(PID.TID 0000.0001)                 6.488320895111514E+10,      /* I = 58 */
(PID.TID 0000.0001)                 5.907428494299063E+10,      /* I = 59 */
(PID.TID 0000.0001)                 5.269930713599078E+10,      /* I = 60 */
(PID.TID 0000.0001)                 4.571243814190767E+10,      /* I = 61 */
(PID.TID 0000.0001)                 3.801790263325260E+10,      /* I = 62 */
(PID.TID 0000.0001)                 2.943712825251114E+10,      /* I = 63 */
(PID.TID 0000.0001)                 1.974052138509018E+10,      /* I = 64 */
(PID.TID 0000.0001)                 1.216690346714270E+10,      /* I = 65 */
(PID.TID 0000.0001)                 1.974052138506315E+10,      /* I = 66 */
(PID.TID 0000.0001)                 2.943712825252015E+10,      /* I = 67 */
(PID.TID 0000.0001)                 3.801790263324359E+10,      /* I = 68 */
(PID.TID 0000.0001)                 4.571243814189866E+10,      /* I = 69 */
(PID.TID 0000.0001)                 5.269930713599979E+10,      /* I = 70 */
(PID.TID 0000.0001)                 5.907428494299063E+10,      /* I = 71 */
(PID.TID 0000.0001)                 6.488320895111514E+10,      /* I = 72 */
(PID.TID 0000.0001)                 7.014205907741882E+10,      /* I = 73 */
(PID.TID 0000.0001)                 7.484854821847499E+10,      /* I = 74 */
(PID.TID 0000.0001)                 7.898934631431560E+10,      /* I = 75 */
(PID.TID 0000.0001)                 8.254500894894537E+10,      /* I = 76 */
(PID.TID 0000.0001)                 8.549360686473492E+10,      /* I = 77 */
(PID.TID 0000.0001)                 8.781353403175085E+10,      /* I = 78 */
(PID.TID 0000.0001)                 8.948571540392021E+10,      /* I = 79 */
(PID.TID 0000.0001)                 9.049530583086168E+10,      /* I = 80 */
(PID.TID 0000.0001)                 9.083293515008307E+10,      /* I = 81 */
(PID.TID 0000.0001)                 9.049530583087070E+10,      /* I = 82 */
(PID.TID 0000.0001)                 8.948571540391121E+10,      /* I = 83 */
(PID.TID 0000.0001)                 8.781353403174185E+10,      /* I = 84 */
(PID.TID 0000.0001)                 8.549360686467184E+10,      /* I = 85 */
(PID.TID 0000.0001)                 8.254500894890933E+10,      /* I = 86 */
(PID.TID 0000.0001)                 7.898934631434262E+10,      /* I = 87 */
(PID.TID 0000.0001)                 7.484854821844795E+10,      /* I = 88 */
(PID.TID 0000.0001)                 7.014205907742783E+10,      /* I = 89 */
(PID.TID 0000.0001)                 6.488320895111514E+10,      /* I = 90 */
(PID.TID 0000.0001)                 5.907428494299063E+10,      /* I = 91 */
(PID.TID 0000.0001)                 5.269930713599078E+10,      /* I = 92 */
(PID.TID 0000.0001)                 4.571243814190767E+10,      /* I = 93 */
(PID.TID 0000.0001)                 3.801790263325260E+10,      /* I = 94 */
(PID.TID 0000.0001)                 2.943712825251114E+10,      /* I = 95 */
(PID.TID 0000.0001)                 1.974052138509018E+10,      /* I = 96 */
(PID.TID 0000.0001)                 1.216690346714270E+10,      /* I = 97 */
(PID.TID 0000.0001)                 1.974052138506315E+10,      /* I = 98 */
(PID.TID 0000.0001)                 2.943712825252015E+10,      /* I = 99 */
(PID.TID 0000.0001)                 3.801790263324359E+10,      /* I =100 */
(PID.TID 0000.0001)                 4.571243814189866E+10,      /* I =101 */
(PID.TID 0000.0001)                 5.269930713599979E+10,      /* I =102 */
(PID.TID 0000.0001)                 5.907428494299063E+10,      /* I =103 */
(PID.TID 0000.0001)                 6.488320895111514E+10,      /* I =104 */
(PID.TID 0000.0001)                 7.014205907741882E+10,      /* I =105 */
(PID.TID 0000.0001)                 7.484854821847499E+10,      /* I =106 */
(PID.TID 0000.0001)                 7.898934631431560E+10,      /* I =107 */
(PID.TID 0000.0001)                 8.254500894894537E+10,      /* I =108 */
(PID.TID 0000.0001)                 8.549360686473492E+10,      /* I =109 */
(PID.TID 0000.0001)                 8.781353403175085E+10,      /* I =110 */
(PID.TID 0000.0001)                 8.948571540392021E+10,      /* I =111 */
(PID.TID 0000.0001)                 9.049530583086168E+10,      /* I =112 */
(PID.TID 0000.0001)                 9.083293515008307E+10,      /* I =113 */
(PID.TID 0000.0001)                 9.049530583087070E+10,      /* I =114 */
(PID.TID 0000.0001)                 8.948571540391121E+10,      /* I =115 */
(PID.TID 0000.0001)                 8.781353403174185E+10,      /* I =116 */
(PID.TID 0000.0001)                 8.549360686467184E+10,      /* I =117 */
(PID.TID 0000.0001)                 8.254500894890933E+10,      /* I =118 */
(PID.TID 0000.0001)                 7.898934631434262E+10,      /* I =119 */
(PID.TID 0000.0001)                 7.484854821844795E+10,      /* I =120 */
(PID.TID 0000.0001)                 7.014205907742783E+10,      /* I =121 */
(PID.TID 0000.0001)                 6.488320895111514E+10,      /* I =122 */
(PID.TID 0000.0001)                 5.907428494299063E+10,      /* I =123 */
(PID.TID 0000.0001)                 5.269930713599078E+10,      /* I =124 */
(PID.TID 0000.0001)                 4.571243814190767E+10,      /* I =125 */
(PID.TID 0000.0001)                 3.801790263325260E+10,      /* I =126 */
(PID.TID 0000.0001)                 2.943712825251114E+10,      /* I =127 */
(PID.TID 0000.0001)                 1.974052138509018E+10,      /* I =128 */
(PID.TID 0000.0001)                 1.216690346714270E+10,      /* I =129 */
(PID.TID 0000.0001)                 1.974052138506315E+10,      /* I =130 */
(PID.TID 0000.0001)                 2.943712825252015E+10,      /* I =131 */
(PID.TID 0000.0001)                 3.801790263324359E+10,      /* I =132 */
(PID.TID 0000.0001)                 4.571243814189866E+10,      /* I =133 */
(PID.TID 0000.0001)                 5.269930713599979E+10,      /* I =134 */
(PID.TID 0000.0001)                 5.907428494299063E+10,      /* I =135 */
(PID.TID 0000.0001)                 6.488320895111514E+10,      /* I =136 */
(PID.TID 0000.0001)                 7.014205907741882E+10,      /* I =137 */
(PID.TID 0000.0001)                 7.484854821847499E+10,      /* I =138 */
(PID.TID 0000.0001)                 7.898934631431560E+10,      /* I =139 */
(PID.TID 0000.0001)                 8.254500894894537E+10,      /* I =140 */
(PID.TID 0000.0001)                 8.549360686473492E+10,      /* I =141 */
(PID.TID 0000.0001)                 8.781353403175085E+10,      /* I =142 */
(PID.TID 0000.0001)                 8.948571540392021E+10,      /* I =143 */
(PID.TID 0000.0001)                 9.049530583086168E+10,      /* I =144 */
(PID.TID 0000.0001)                 9.083293515008307E+10,      /* I =145 */
(PID.TID 0000.0001)                 9.049530583087070E+10,      /* I =146 */
(PID.TID 0000.0001)                 8.948571540391121E+10,      /* I =147 */
(PID.TID 0000.0001)                 8.781353403174185E+10,      /* I =148 */
(PID.TID 0000.0001)                 8.549360686467184E+10,      /* I =149 */
(PID.TID 0000.0001)                 8.254500894890933E+10,      /* I =150 */
(PID.TID 0000.0001)                 7.898934631434262E+10,      /* I =151 */
(PID.TID 0000.0001)                 7.484854821844795E+10,      /* I =152 */
(PID.TID 0000.0001)                 7.014205907742783E+10,      /* I =153 */
(PID.TID 0000.0001)                 6.488320895111514E+10,      /* I =154 */
(PID.TID 0000.0001)                 5.907428494299063E+10,      /* I =155 */
(PID.TID 0000.0001)                 5.269930713599078E+10,      /* I =156 */
(PID.TID 0000.0001)                 4.571243814190767E+10,      /* I =157 */
(PID.TID 0000.0001)                 3.801790263325260E+10,      /* I =158 */
(PID.TID 0000.0001)                 2.943712825251114E+10,      /* I =159 */
(PID.TID 0000.0001)                 1.974052138509018E+10,      /* I =160 */
(PID.TID 0000.0001)                 1.216690346714270E+10,      /* I =161 */
(PID.TID 0000.0001)                 1.974052138506315E+10,      /* I =162 */
(PID.TID 0000.0001)                 2.943712825252015E+10,      /* I =163 */
(PID.TID 0000.0001)                 3.801790263324359E+10,      /* I =164 */
(PID.TID 0000.0001)                 4.571243814189866E+10,      /* I =165 */
(PID.TID 0000.0001)                 5.269930713599979E+10,      /* I =166 */
(PID.TID 0000.0001)                 5.907428494299063E+10,      /* I =167 */
(PID.TID 0000.0001)                 6.488320895111514E+10,      /* I =168 */
(PID.TID 0000.0001)                 7.014205907741882E+10,      /* I =169 */
(PID.TID 0000.0001)                 7.484854821847499E+10,      /* I =170 */
(PID.TID 0000.0001)                 7.898934631431560E+10,      /* I =171 */
(PID.TID 0000.0001)                 8.254500894894537E+10,      /* I =172 */
(PID.TID 0000.0001)                 8.549360686473492E+10,      /* I =173 */
(PID.TID 0000.0001)                 8.781353403175085E+10,      /* I =174 */
(PID.TID 0000.0001)                 8.948571540392021E+10,      /* I =175 */
(PID.TID 0000.0001)                 9.049530583086168E+10,      /* I =176 */
(PID.TID 0000.0001)                 9.083293515008307E+10,      /* I =177 */
(PID.TID 0000.0001)                 9.049530583087070E+10,      /* I =178 */
(PID.TID 0000.0001)                 8.948571540391121E+10,      /* I =179 */
(PID.TID 0000.0001)                 8.781353403174185E+10,      /* I =180 */
(PID.TID 0000.0001)                 8.549360686467184E+10,      /* I =181 */
(PID.TID 0000.0001)                 8.254500894890933E+10,      /* I =182 */
(PID.TID 0000.0001)                 7.898934631434262E+10,      /* I =183 */
(PID.TID 0000.0001)                 7.484854821844795E+10,      /* I =184 */
(PID.TID 0000.0001)                 7.014205907742783E+10,      /* I =185 */
(PID.TID 0000.0001)                 6.488320895111514E+10,      /* I =186 */
(PID.TID 0000.0001)                 5.907428494299063E+10,      /* I =187 */
(PID.TID 0000.0001)                 5.269930713599078E+10,      /* I =188 */
(PID.TID 0000.0001)                 4.571243814190767E+10,      /* I =189 */
(PID.TID 0000.0001)                 3.801790263325260E+10,      /* I =190 */
(PID.TID 0000.0001)                 2.943712825251114E+10,      /* I =191 */
(PID.TID 0000.0001)                 1.974052138509018E+10       /* I =192 */
(PID.TID 0000.0001)     ;
(PID.TID 0000.0001) rAw =  /* rAw(1,:,1,:) ( m - cartesian, degrees - spherical ) */
(PID.TID 0000.0001)                 1.216690346714270E+10,      /* J =  1 */
(PID.TID 0000.0001)                 2.390126200743558E+10,      /* J =  2 */
(PID.TID 0000.0001)                 3.341968103208270E+10,      /* J =  3 */
(PID.TID 0000.0001)                 4.168532893152940E+10,      /* J =  4 */
(PID.TID 0000.0001)                 4.909074590409593E+10,      /* J =  5 */
(PID.TID 0000.0001)                 5.581203765722643E+10,      /* J =  6 */
(PID.TID 0000.0001)                 6.193257577506788E+10,      /* J =  7 */
(PID.TID 0000.0001)                 6.748840226738273E+10,      /* J =  8 */
(PID.TID 0000.0001)                 7.248875782324815E+10,      /* J =  9 */
(PID.TID 0000.0001)                 7.692702995909871E+10,      /* J = 10 */
(PID.TID 0000.0001)                 8.078743937057304E+10,      /* J = 11 */
(PID.TID 0000.0001)                 8.404959656062837E+10,      /* J = 12 */
(PID.TID 0000.0001)                 8.669186205742538E+10,      /* J = 13 */
(PID.TID 0000.0001)                 8.869393350723613E+10,      /* J = 14 */
(PID.TID 0000.0001)                 9.003884657168852E+10,      /* J = 15 */
(PID.TID 0000.0001)     2 @  9.071447638299399E+10,             /* J = 16: 17 */
(PID.TID 0000.0001)                 9.003884657168852E+10,      /* J = 18 */
(PID.TID 0000.0001)                 8.869393350723613E+10,      /* J = 19 */
(PID.TID 0000.0001)                 8.669186205742538E+10,      /* J = 20 */
(PID.TID 0000.0001)                 8.404959656062837E+10,      /* J = 21 */
(PID.TID 0000.0001)                 8.078743937057304E+10,      /* J = 22 */
(PID.TID 0000.0001)                 7.692702995909871E+10,      /* J = 23 */
(PID.TID 0000.0001)                 7.248875782324815E+10,      /* J = 24 */
(PID.TID 0000.0001)                 6.748840226738273E+10,      /* J = 25 */
(PID.TID 0000.0001)                 6.193257577506788E+10,      /* J = 26 */
(PID.TID 0000.0001)                 5.581203765722643E+10,      /* J = 27 */
(PID.TID 0000.0001)                 4.909074590409593E+10,      /* J = 28 */
(PID.TID 0000.0001)                 4.168532893152940E+10,      /* J = 29 */
(PID.TID 0000.0001)                 3.341968103208270E+10,      /* J = 30 */
(PID.TID 0000.0001)                 2.390126200743558E+10,      /* J = 31 */
(PID.TID 0000.0001)                 1.216690346714270E+10       /* J = 32 */
(PID.TID 0000.0001)     ;
(PID.TID 0000.0001) rAs =  /* rAs(:,1,:,1) ( m - cartesian, degrees - spherical ) */
(PID.TID 0000.0001)                 1.216690346714270E+10,      /* I =  1 */
(PID.TID 0000.0001)                 2.390126200743558E+10,      /* I =  2 */
(PID.TID 0000.0001)                 3.341968103208270E+10,      /* I =  3 */
(PID.TID 0000.0001)                 4.168532893152940E+10,      /* I =  4 */
(PID.TID 0000.0001)                 4.909074590409593E+10,      /* I =  5 */
(PID.TID 0000.0001)                 5.581203765722643E+10,      /* I =  6 */
(PID.TID 0000.0001)                 6.193257577506788E+10,      /* I =  7 */
(PID.TID 0000.0001)                 6.748840226738273E+10,      /* I =  8 */
(PID.TID 0000.0001)                 7.248875782324815E+10,      /* I =  9 */
(PID.TID 0000.0001)                 7.692702995909871E+10,      /* I = 10 */
(PID.TID 0000.0001)                 8.078743937057304E+10,      /* I = 11 */
(PID.TID 0000.0001)                 8.404959656062837E+10,      /* I = 12 */
(PID.TID 0000.0001)                 8.669186205742538E+10,      /* I = 13 */
(PID.TID 0000.0001)                 8.869393350723613E+10,      /* I = 14 */
(PID.TID 0000.0001)                 9.003884657168852E+10,      /* I = 15 */
(PID.TID 0000.0001)     2 @  9.071447638299399E+10,             /* I = 16: 17 */
(PID.TID 0000.0001)                 9.003884657168852E+10,      /* I = 18 */
(PID.TID 0000.0001)                 8.869393350723613E+10,      /* I = 19 */
(PID.TID 0000.0001)                 8.669186205742538E+10,      /* I = 20 */
(PID.TID 0000.0001)                 8.404959656062837E+10,      /* I = 21 */
(PID.TID 0000.0001)                 8.078743937057304E+10,      /* I = 22 */
(PID.TID 0000.0001)                 7.692702995909871E+10,      /* I = 23 */
(PID.TID 0000.0001)                 7.248875782324815E+10,      /* I = 24 */
(PID.TID 0000.0001)                 6.748840226738273E+10,      /* I = 25 */
(PID.TID 0000.0001)                 6.193257577506788E+10,      /* I = 26 */
(PID.TID 0000.0001)                 5.581203765722643E+10,      /* I = 27 */
(PID.TID 0000.0001)                 4.909074590409593E+10,      /* I = 28 */
(PID.TID 0000.0001)                 4.168532893152940E+10,      /* I = 29 */
(PID.TID 0000.0001)                 3.341968103208270E+10,      /* I = 30 */
(PID.TID 0000.0001)                 2.390126200743558E+10,      /* I = 31 */
(PID.TID 0000.0001)     2 @  1.216690346714270E+10,             /* I = 32: 33 */
(PID.TID 0000.0001)                 2.390126200743558E+10,      /* I = 34 */
(PID.TID 0000.0001)                 3.341968103208270E+10,      /* I = 35 */
(PID.TID 0000.0001)                 4.168532893152940E+10,      /* I = 36 */
(PID.TID 0000.0001)                 4.909074590409593E+10,      /* I = 37 */
(PID.TID 0000.0001)                 5.581203765722643E+10,      /* I = 38 */
(PID.TID 0000.0001)                 6.193257577506788E+10,      /* I = 39 */
(PID.TID 0000.0001)                 6.748840226738273E+10,      /* I = 40 */
(PID.TID 0000.0001)                 7.248875782324815E+10,      /* I = 41 */
(PID.TID 0000.0001)                 7.692702995909871E+10,      /* I = 42 */
(PID.TID 0000.0001)                 8.078743937057304E+10,      /* I = 43 */
(PID.TID 0000.0001)                 8.404959656062837E+10,      /* I = 44 */
(PID.TID 0000.0001)                 8.669186205742538E+10,      /* I = 45 */
(PID.TID 0000.0001)                 8.869393350723613E+10,      /* I = 46 */
(PID.TID 0000.0001)                 9.003884657168852E+10,      /* I = 47 */
(PID.TID 0000.0001)     2 @  9.071447638299399E+10,             /* I = 48: 49 */
(PID.TID 0000.0001)                 9.003884657168852E+10,      /* I = 50 */
(PID.TID 0000.0001)                 8.869393350723613E+10,      /* I = 51 */
(PID.TID 0000.0001)                 8.669186205742538E+10,      /* I = 52 */
(PID.TID 0000.0001)                 8.404959656062837E+10,      /* I = 53 */
(PID.TID 0000.0001)                 8.078743937057304E+10,      /* I = 54 */
(PID.TID 0000.0001)                 7.692702995909871E+10,      /* I = 55 */
(PID.TID 0000.0001)                 7.248875782324815E+10,      /* I = 56 */
(PID.TID 0000.0001)                 6.748840226738273E+10,      /* I = 57 */
(PID.TID 0000.0001)                 6.193257577506788E+10,      /* I = 58 */
(PID.TID 0000.0001)                 5.581203765722643E+10,      /* I = 59 */
(PID.TID 0000.0001)                 4.909074590409593E+10,      /* I = 60 */
(PID.TID 0000.0001)                 4.168532893152940E+10,      /* I = 61 */
(PID.TID 0000.0001)                 3.341968103208270E+10,      /* I = 62 */
(PID.TID 0000.0001)                 2.390126200743558E+10,      /* I = 63 */
(PID.TID 0000.0001)     2 @  1.216690346714270E+10,             /* I = 64: 65 */
(PID.TID 0000.0001)                 2.390126200743558E+10,      /* I = 66 */
(PID.TID 0000.0001)                 3.341968103208270E+10,      /* I = 67 */
(PID.TID 0000.0001)                 4.168532893152940E+10,      /* I = 68 */
(PID.TID 0000.0001)                 4.909074590409593E+10,      /* I = 69 */
(PID.TID 0000.0001)                 5.581203765722643E+10,      /* I = 70 */
(PID.TID 0000.0001)                 6.193257577506788E+10,      /* I = 71 */
(PID.TID 0000.0001)                 6.748840226738273E+10,      /* I = 72 */
(PID.TID 0000.0001)                 7.248875782324815E+10,      /* I = 73 */
(PID.TID 0000.0001)                 7.692702995909871E+10,      /* I = 74 */
(PID.TID 0000.0001)                 8.078743937057304E+10,      /* I = 75 */
(PID.TID 0000.0001)                 8.404959656062837E+10,      /* I = 76 */
(PID.TID 0000.0001)                 8.669186205742538E+10,      /* I = 77 */
(PID.TID 0000.0001)                 8.869393350723613E+10,      /* I = 78 */
(PID.TID 0000.0001)                 9.003884657168852E+10,      /* I = 79 */
(PID.TID 0000.0001)     2 @  9.071447638299399E+10,             /* I = 80: 81 */
(PID.TID 0000.0001)                 9.003884657168852E+10,      /* I = 82 */
(PID.TID 0000.0001)                 8.869393350723613E+10,      /* I = 83 */
(PID.TID 0000.0001)                 8.669186205742538E+10,      /* I = 84 */
(PID.TID 0000.0001)                 8.404959656062837E+10,      /* I = 85 */
(PID.TID 0000.0001)                 8.078743937057304E+10,      /* I = 86 */
(PID.TID 0000.0001)                 7.692702995909871E+10,      /* I = 87 */
(PID.TID 0000.0001)                 7.248875782324815E+10,      /* I = 88 */
(PID.TID 0000.0001)                 6.748840226738273E+10,      /* I = 89 */
(PID.TID 0000.0001)                 6.193257577506788E+10,      /* I = 90 */
(PID.TID 0000.0001)                 5.581203765722643E+10,      /* I = 91 */
(PID.TID 0000.0001)                 4.909074590409593E+10,      /* I = 92 */
(PID.TID 0000.0001)                 4.168532893152940E+10,      /* I = 93 */
(PID.TID 0000.0001)                 3.341968103208270E+10,      /* I = 94 */
(PID.TID 0000.0001)                 2.390126200743558E+10,      /* I = 95 */
(PID.TID 0000.0001)     2 @  1.216690346714270E+10,             /* I = 96: 97 */
(PID.TID 0000.0001)                 2.390126200743558E+10,      /* I = 98 */
(PID.TID 0000.0001)                 3.341968103208270E+10,      /* I = 99 */
(PID.TID 0000.0001)                 4.168532893152940E+10,      /* I =100 */
(PID.TID 0000.0001)                 4.909074590409593E+10,      /* I =101 */
(PID.TID 0000.0001)                 5.581203765722643E+10,      /* I =102 */
(PID.TID 0000.0001)                 6.193257577506788E+10,      /* I =103 */
(PID.TID 0000.0001)                 6.748840226738273E+10,      /* I =104 */
(PID.TID 0000.0001)                 7.248875782324815E+10,      /* I =105 */
(PID.TID 0000.0001)                 7.692702995909871E+10,      /* I =106 */
(PID.TID 0000.0001)                 8.078743937057304E+10,      /* I =107 */
(PID.TID 0000.0001)                 8.404959656062837E+10,      /* I =108 */
(PID.TID 0000.0001)                 8.669186205742538E+10,      /* I =109 */
(PID.TID 0000.0001)                 8.869393350723613E+10,      /* I =110 */
(PID.TID 0000.0001)                 9.003884657168852E+10,      /* I =111 */
(PID.TID 0000.0001)     2 @  9.071447638299399E+10,             /* I =112:113 */
(PID.TID 0000.0001)                 9.003884657168852E+10,      /* I =114 */
(PID.TID 0000.0001)                 8.869393350723613E+10,      /* I =115 */
(PID.TID 0000.0001)                 8.669186205742538E+10,      /* I =116 */
(PID.TID 0000.0001)                 8.404959656062837E+10,      /* I =117 */
(PID.TID 0000.0001)                 8.078743937057304E+10,      /* I =118 */
(PID.TID 0000.0001)                 7.692702995909871E+10,      /* I =119 */
(PID.TID 0000.0001)                 7.248875782324815E+10,      /* I =120 */
(PID.TID 0000.0001)                 6.748840226738273E+10,      /* I =121 */
(PID.TID 0000.0001)                 6.193257577506788E+10,      /* I =122 */
(PID.TID 0000.0001)                 5.581203765722643E+10,      /* I =123 */
(PID.TID 0000.0001)                 4.909074590409593E+10,      /* I =124 */
(PID.TID 0000.0001)                 4.168532893152940E+10,      /* I =125 */
(PID.TID 0000.0001)                 3.341968103208270E+10,      /* I =126 */
(PID.TID 0000.0001)                 2.390126200743558E+10,      /* I =127 */
(PID.TID 0000.0001)     2 @  1.216690346714270E+10,             /* I =128:129 */
(PID.TID 0000.0001)                 2.390126200743558E+10,      /* I =130 */
(PID.TID 0000.0001)                 3.341968103208270E+10,      /* I =131 */
(PID.TID 0000.0001)                 4.168532893152940E+10,      /* I =132 */
(PID.TID 0000.0001)                 4.909074590409593E+10,      /* I =133 */
(PID.TID 0000.0001)                 5.581203765722643E+10,      /* I =134 */
(PID.TID 0000.0001)                 6.193257577506788E+10,      /* I =135 */
(PID.TID 0000.0001)                 6.748840226738273E+10,      /* I =136 */
(PID.TID 0000.0001)                 7.248875782324815E+10,      /* I =137 */
(PID.TID 0000.0001)                 7.692702995909871E+10,      /* I =138 */
(PID.TID 0000.0001)                 8.078743937057304E+10,      /* I =139 */
(PID.TID 0000.0001)                 8.404959656062837E+10,      /* I =140 */
(PID.TID 0000.0001)                 8.669186205742538E+10,      /* I =141 */
(PID.TID 0000.0001)                 8.869393350723613E+10,      /* I =142 */
(PID.TID 0000.0001)                 9.003884657168852E+10,      /* I =143 */
(PID.TID 0000.0001)     2 @  9.071447638299399E+10,             /* I =144:145 */
(PID.TID 0000.0001)                 9.003884657168852E+10,      /* I =146 */
(PID.TID 0000.0001)                 8.869393350723613E+10,      /* I =147 */
(PID.TID 0000.0001)                 8.669186205742538E+10,      /* I =148 */
(PID.TID 0000.0001)                 8.404959656062837E+10,      /* I =149 */
(PID.TID 0000.0001)                 8.078743937057304E+10,      /* I =150 */
(PID.TID 0000.0001)                 7.692702995909871E+10,      /* I =151 */
(PID.TID 0000.0001)                 7.248875782324815E+10,      /* I =152 */
(PID.TID 0000.0001)                 6.748840226738273E+10,      /* I =153 */
(PID.TID 0000.0001)                 6.193257577506788E+10,      /* I =154 */
(PID.TID 0000.0001)                 5.581203765722643E+10,      /* I =155 */
(PID.TID 0000.0001)                 4.909074590409593E+10,      /* I =156 */
(PID.TID 0000.0001)                 4.168532893152940E+10,      /* I =157 */
(PID.TID 0000.0001)                 3.341968103208270E+10,      /* I =158 */
(PID.TID 0000.0001)                 2.390126200743558E+10,      /* I =159 */
(PID.TID 0000.0001)     2 @  1.216690346714270E+10,             /* I =160:161 */
(PID.TID 0000.0001)                 2.390126200743558E+10,      /* I =162 */
(PID.TID 0000.0001)                 3.341968103208270E+10,      /* I =163 */
(PID.TID 0000.0001)                 4.168532893152940E+10,      /* I =164 */
(PID.TID 0000.0001)                 4.909074590409593E+10,      /* I =165 */
(PID.TID 0000.0001)                 5.581203765722643E+10,      /* I =166 */
(PID.TID 0000.0001)                 6.193257577506788E+10,      /* I =167 */
(PID.TID 0000.0001)                 6.748840226738273E+10,      /* I =168 */
(PID.TID 0000.0001)                 7.248875782324815E+10,      /* I =169 */
(PID.TID 0000.0001)                 7.692702995909871E+10,      /* I =170 */
(PID.TID 0000.0001)                 8.078743937057304E+10,      /* I =171 */
(PID.TID 0000.0001)                 8.404959656062837E+10,      /* I =172 */
(PID.TID 0000.0001)                 8.669186205742538E+10,      /* I =173 */
(PID.TID 0000.0001)                 8.869393350723613E+10,      /* I =174 */
(PID.TID 0000.0001)                 9.003884657168852E+10,      /* I =175 */
(PID.TID 0000.0001)     2 @  9.071447638299399E+10,             /* I =176:177 */
(PID.TID 0000.0001)                 9.003884657168852E+10,      /* I =178 */
(PID.TID 0000.0001)                 8.869393350723613E+10,      /* I =179 */
(PID.TID 0000.0001)                 8.669186205742538E+10,      /* I =180 */
(PID.TID 0000.0001)                 8.404959656062837E+10,      /* I =181 */
(PID.TID 0000.0001)                 8.078743937057304E+10,      /* I =182 */
(PID.TID 0000.0001)                 7.692702995909871E+10,      /* I =183 */
(PID.TID 0000.0001)                 7.248875782324815E+10,      /* I =184 */
(PID.TID 0000.0001)                 6.748840226738273E+10,      /* I =185 */
(PID.TID 0000.0001)                 6.193257577506788E+10,      /* I =186 */
(PID.TID 0000.0001)                 5.581203765722643E+10,      /* I =187 */
(PID.TID 0000.0001)                 4.909074590409593E+10,      /* I =188 */
(PID.TID 0000.0001)                 4.168532893152940E+10,      /* I =189 */
(PID.TID 0000.0001)                 3.341968103208270E+10,      /* I =190 */
(PID.TID 0000.0001)                 2.390126200743558E+10,      /* I =191 */
(PID.TID 0000.0001)                 1.216690346714270E+10       /* I =192 */
(PID.TID 0000.0001)     ;
(PID.TID 0000.0001) rAs =  /* rAs(1,:,1,:) ( m - cartesian, degrees - spherical ) */
(PID.TID 0000.0001)                 1.216690346714270E+10,      /* J =  1 */
(PID.TID 0000.0001)                 1.974052138506315E+10,      /* J =  2 */
(PID.TID 0000.0001)                 2.943712825252015E+10,      /* J =  3 */
(PID.TID 0000.0001)                 3.801790263324359E+10,      /* J =  4 */
(PID.TID 0000.0001)                 4.571243814189866E+10,      /* J =  5 */
(PID.TID 0000.0001)                 5.269930713599979E+10,      /* J =  6 */
(PID.TID 0000.0001)                 5.907428494299063E+10,      /* J =  7 */
(PID.TID 0000.0001)                 6.488320895111514E+10,      /* J =  8 */
(PID.TID 0000.0001)                 7.014205907741882E+10,      /* J =  9 */
(PID.TID 0000.0001)                 7.484854821847499E+10,      /* J = 10 */
(PID.TID 0000.0001)                 7.898934631431560E+10,      /* J = 11 */
(PID.TID 0000.0001)                 8.254500894894537E+10,      /* J = 12 */
(PID.TID 0000.0001)                 8.549360686473492E+10,      /* J = 13 */
(PID.TID 0000.0001)                 8.781353403175085E+10,      /* J = 14 */
(PID.TID 0000.0001)                 8.948571540392021E+10,      /* J = 15 */
(PID.TID 0000.0001)                 9.049530583086168E+10,      /* J = 16 */
(PID.TID 0000.0001)                 9.083293515008307E+10,      /* J = 17 */
(PID.TID 0000.0001)                 9.049530583087070E+10,      /* J = 18 */
(PID.TID 0000.0001)                 8.948571540391121E+10,      /* J = 19 */
(PID.TID 0000.0001)                 8.781353403174185E+10,      /* J = 20 */
(PID.TID 0000.0001)                 8.549360686467184E+10,      /* J = 21 */
(PID.TID 0000.0001)                 8.254500894890933E+10,      /* J = 22 */
(PID.TID 0000.0001)                 7.898934631434262E+10,      /* J = 23 */
(PID.TID 0000.0001)                 7.484854821844795E+10,      /* J = 24 */
(PID.TID 0000.0001)                 7.014205907742783E+10,      /* J = 25 */
(PID.TID 0000.0001)                 6.488320895111514E+10,      /* J = 26 */
(PID.TID 0000.0001)                 5.907428494299063E+10,      /* J = 27 */
(PID.TID 0000.0001)                 5.269930713599078E+10,      /* J = 28 */
(PID.TID 0000.0001)                 4.571243814190767E+10,      /* J = 29 */
(PID.TID 0000.0001)                 3.801790263325260E+10,      /* J = 30 */
(PID.TID 0000.0001)                 2.943712825251114E+10,      /* J = 31 */
(PID.TID 0000.0001)                 1.974052138509018E+10       /* J = 32 */
(PID.TID 0000.0001)     ;
(PID.TID 0000.0001) 
(PID.TID 0000.0001)  MDSREADFIELD: opening global file: pickup.0000017280
(PID.TID 0000.0001)  MDSREADFIELD: opening global file: pickup.0000017280
(PID.TID 0000.0001)  MDSREADFIELD: opening global file: pickup.0000017280
(PID.TID 0000.0001)  MDSREADFIELD: opening global file: pickup.0000017280
(PID.TID 0000.0001)  MDSREADFIELD: opening global file: pickup.0000017280
(PID.TID 0000.0001)  MDSREADFIELD: opening global file: pickup.0000017280
(PID.TID 0000.0001)  MDSREADFIELD: opening global file: pickup.0000017280
(PID.TID 0000.0001)  MDSREADFIELD: opening global file: pickup.0000017280
(PID.TID 0000.0001)  MDSREADFIELD: opening global file: pickup.0000017280
(PID.TID 0000.0001)  MDSREADFIELD: opening global file: pickup.0000017280
(PID.TID 0000.0001)  MDSREADFIELD: opening global file: pickup.0000017280
(PID.TID 0000.0001)  MDSREADFIELD: opening global file: pickup.0000017280
(PID.TID 0000.0001)  MDSREADFIELD: opening global file: pickup.0000017280
(PID.TID 0000.0001) // =======================================================
(PID.TID 0000.0001) // Model current state
(PID.TID 0000.0001) // =======================================================
(PID.TID 0000.0001) 
(PID.TID 0000.0001) // =======================================================
(PID.TID 0000.0001) // Begin MONITOR dynamic field statistics
(PID.TID 0000.0001) // =======================================================
(PID.TID 0000.0001) %MON time_tsnumber                =                 17280
(PID.TID 0000.0001) %MON time_secondsf                =   7.7760000000000E+06
(PID.TID 0000.0001) %MON dynstat_eta_max              =   2.9911114076663E+03
(PID.TID 0000.0001) %MON dynstat_eta_min              =  -4.8997274603394E+03
(PID.TID 0000.0001) %MON dynstat_eta_mean             =  -1.1013387326523E-12
(PID.TID 0000.0001) %MON dynstat_eta_sd               =   1.0324409833676E+03
(PID.TID 0000.0001) %MON dynstat_eta_del2             =   8.7875857531579E+01
(PID.TID 0000.0001) %MON dynstat_uvel_max             =   5.7495685085319E+01
(PID.TID 0000.0001) %MON dynstat_uvel_min             =  -6.4200337290909E+01
(PID.TID 0000.0001) %MON dynstat_uvel_mean            =   1.4120292785177E+00
(PID.TID 0000.0001) %MON dynstat_uvel_sd              =   1.1833864013343E+01
(PID.TID 0000.0001) %MON dynstat_uvel_del2            =   9.4805279904974E-01
(PID.TID 0000.0001) %MON dynstat_vvel_max             =   7.4312745702173E+01
(PID.TID 0000.0001) %MON dynstat_vvel_min             =  -5.8141829229415E+01
(PID.TID 0000.0001) %MON dynstat_vvel_mean            =   1.3832473172149E+00
(PID.TID 0000.0001) %MON dynstat_vvel_sd              =   1.2003603927999E+01
(PID.TID 0000.0001) %MON dynstat_vvel_del2            =   8.9863461049956E-01
(PID.TID 0000.0001) %MON dynstat_wvel_max             =   1.3097656147871E+00
(PID.TID 0000.0001) %MON dynstat_wvel_min             =  -1.2089833028286E+00
(PID.TID 0000.0001) %MON dynstat_wvel_mean            =  -3.8989181802384E-08
(PID.TID 0000.0001) %MON dynstat_wvel_sd              =   1.1565220939752E-01
(PID.TID 0000.0001) %MON dynstat_wvel_del2            =   3.0816918695521E-02
(PID.TID 0000.0001) %MON dynstat_theta_max            =   4.9364268562826E+02
(PID.TID 0000.0001) %MON dynstat_theta_min            =   2.4314724177740E+02
(PID.TID 0000.0001) %MON dynstat_theta_mean           =   3.3134739546353E+02
(PID.TID 0000.0001) %MON dynstat_theta_sd             =   4.8600738751946E+01
(PID.TID 0000.0001) %MON dynstat_theta_del2           =   8.5743394432884E-01
(PID.TID 0000.0001) %MON dynstat_salt_max             =   1.7584023155863E+01
(PID.TID 0000.0001) %MON dynstat_salt_min             =  -6.2413014958104E-01
(PID.TID 0000.0001) %MON dynstat_salt_mean            =   2.2625729641354E+00
(PID.TID 0000.0001) %MON dynstat_salt_sd              =   3.2548905809991E+00
(PID.TID 0000.0001) %MON dynstat_salt_del2            =   1.6736270358426E-01
(PID.TID 0000.0001) %MON advcfl_uvel_max              =   1.6083965950269E-01
(PID.TID 0000.0001) %MON advcfl_vvel_max              =   2.0440889119239E-01
(PID.TID 0000.0001) %MON advcfl_wvel_max              =   2.3575781066168E-02
(PID.TID 0000.0001) %MON advcfl_W_hf_max              =   1.1536990368323E-01
(PID.TID 0000.0001) %MON pe_b_mean                    =   4.7488840647078E+00
(PID.TID 0000.0001) %MON ke_max                       =   2.9958439651612E+03
(PID.TID 0000.0001) %MON ke_mean                      =   1.4292919448277E+02
(PID.TID 0000.0001) %MON ke_vol                       =   4.9349303958998E+19
(PID.TID 0000.0001) %MON vort_r_min                   =  -1.7814214984714E-04
(PID.TID 0000.0001) %MON vort_r_max                   =   2.1294491560295E-04
(PID.TID 0000.0001) %MON vort_a_mean                  =  -2.4424348760099E-08
(PID.TID 0000.0001) %MON vort_a_sd                    =   8.9046270520966E-05
(PID.TID 0000.0001) %MON vort_p_mean                  =  -2.5159553296051E-08
(PID.TID 0000.0001) %MON vort_p_sd                    =   9.6553043769552E-05
(PID.TID 0000.0001) %MON surfExpan_theta_mean         =  -3.4736447418069E-03
(PID.TID 0000.0001) %MON surfExpan_salt_mean          =  -1.5513695889088E-03
(PID.TID 0000.0001) %MON surfExpan_Heat_mean          =  -3.4747171217155E-01
(PID.TID 0000.0001) %MON En_Budget_T2PE_mean          =   2.0512031000042E+00
(PID.TID 0000.0001) // =======================================================
(PID.TID 0000.0001) // End MONITOR dynamic field statistics
(PID.TID 0000.0001) // =======================================================
(PID.TID 0000.0001)  MDSREADFIELD: opening global file: salb.apr.cs.bin
(PID.TID 0000.0001)  MDSREADFIELD: opening global file: sTemp.apr.cs.bin
(PID.TID 0000.0001)  MDSREADFIELD: opening global file: smoist.apr.cs.bin
 cg2d: Sum(rhs),rhsMax =   2.10080770557397E-08  2.13395501763223E+04
(PID.TID 0000.0001)                    cg2d_init_res =    1.24260160675304E+04
(PID.TID 0000.0001)                       cg2d_iters =    16
(PID.TID 0000.0001)                         cg2d_res =    7.39256733137443E-11
(PID.TID 0000.0001) // =======================================================
(PID.TID 0000.0001) // Begin MONITOR dynamic field statistics
(PID.TID 0000.0001) // =======================================================
(PID.TID 0000.0001) %MON time_tsnumber                =                 17281
(PID.TID 0000.0001) %MON time_secondsf                =   7.7764500000000E+06
(PID.TID 0000.0001) %MON dynstat_eta_max              =   2.9918700869445E+03
(PID.TID 0000.0001) %MON dynstat_eta_min              =  -4.9013230478040E+03
(PID.TID 0000.0001) %MON dynstat_eta_mean             =   8.4811834078336E-13
(PID.TID 0000.0001) %MON dynstat_eta_sd               =   1.0324030226339E+03
(PID.TID 0000.0001) %MON dynstat_eta_del2             =   8.7864806461784E+01
(PID.TID 0000.0001) %MON dynstat_uvel_max             =   5.7697287355161E+01
(PID.TID 0000.0001) %MON dynstat_uvel_min             =  -6.4050968919731E+01
(PID.TID 0000.0001) %MON dynstat_uvel_mean            =   1.4125045297760E+00
(PID.TID 0000.0001) %MON dynstat_uvel_sd              =   1.1832878921058E+01
(PID.TID 0000.0001) %MON dynstat_uvel_del2            =   9.4796177667179E-01
(PID.TID 0000.0001) %MON dynstat_vvel_max             =   7.4273413982555E+01
(PID.TID 0000.0001) %MON dynstat_vvel_min             =  -5.8149043513184E+01
(PID.TID 0000.0001) %MON dynstat_vvel_mean            =   1.3835382197274E+00
(PID.TID 0000.0001) %MON dynstat_vvel_sd              =   1.2003868352127E+01
(PID.TID 0000.0001) %MON dynstat_vvel_del2            =   8.9884386337176E-01
(PID.TID 0000.0001) %MON dynstat_wvel_max             =   1.3200233541040E+00
(PID.TID 0000.0001) %MON dynstat_wvel_min             =  -1.1709549298949E+00
(PID.TID 0000.0001) %MON dynstat_wvel_mean            =  -8.0584488969299E-07
(PID.TID 0000.0001) %MON dynstat_wvel_sd              =   1.1566872712086E-01
(PID.TID 0000.0001) %MON dynstat_wvel_del2            =   3.0847210541343E-02
(PID.TID 0000.0001) %MON dynstat_theta_max            =   4.9364466929004E+02
(PID.TID 0000.0001) %MON dynstat_theta_min            =   2.4336030881079E+02
(PID.TID 0000.0001) %MON dynstat_theta_mean           =   3.3134807702715E+02
(PID.TID 0000.0001) %MON dynstat_theta_sd             =   4.8599837782895E+01
(PID.TID 0000.0001) %MON dynstat_theta_del2           =   8.5740802075615E-01
(PID.TID 0000.0001) %MON dynstat_salt_max             =   1.7723602163642E+01
(PID.TID 0000.0001) %MON dynstat_salt_min             =  -6.1988613874656E-01
(PID.TID 0000.0001) %MON dynstat_salt_mean            =   2.2631234068441E+00
(PID.TID 0000.0001) %MON dynstat_salt_sd              =   3.2556851390751E+00
(PID.TID 0000.0001) %MON dynstat_salt_del2            =   1.6738981487166E-01
(PID.TID 0000.0001) %MON advcfl_uvel_max              =   1.6055588897734E-01
(PID.TID 0000.0001) %MON advcfl_vvel_max              =   2.0421959335040E-01
(PID.TID 0000.0001) %MON advcfl_wvel_max              =   2.3760420373873E-02
(PID.TID 0000.0001) %MON advcfl_W_hf_max              =   1.1550484630689E-01
(PID.TID 0000.0001) %MON pe_b_mean                    =   4.7486703915138E+00
(PID.TID 0000.0001) %MON ke_max                       =   2.9870702268962E+03
(PID.TID 0000.0001) %MON ke_mean                      =   1.4292184567407E+02
(PID.TID 0000.0001) %MON ke_vol                       =   4.9349303958998E+19
(PID.TID 0000.0001) %MON vort_r_min                   =  -1.7630097959661E-04
(PID.TID 0000.0001) %MON vort_r_max                   =   2.1273414681671E-04
(PID.TID 0000.0001) %MON vort_a_mean                  =  -2.4347477979263E-08
(PID.TID 0000.0001) %MON vort_a_sd                    =   8.9046008520648E-05
(PID.TID 0000.0001) %MON vort_p_mean                  =  -2.5080368605137E-08
(PID.TID 0000.0001) %MON vort_p_sd                    =   9.6557170707029E-05
(PID.TID 0000.0001) %MON surfExpan_theta_mean         =  -3.0566865250847E-03
(PID.TID 0000.0001) %MON surfExpan_salt_mean          =  -1.4366984928073E-03
(PID.TID 0000.0001) %MON surfExpan_Heat_mean          =  -3.2466146717396E-01
(PID.TID 0000.0001) %MON En_Budget_T2PE_mean          =   2.0717677016162E+00
(PID.TID 0000.0001) // =======================================================
(PID.TID 0000.0001) // End MONITOR dynamic field statistics
(PID.TID 0000.0001) // =======================================================
 cg2d: Sum(rhs),rhsMax =   2.80613789982453E-08  2.13487811305863E+04
(PID.TID 0000.0001)                    cg2d_init_res =    1.24234834662463E+04
(PID.TID 0000.0001)                       cg2d_iters =    16
(PID.TID 0000.0001)                         cg2d_res =    7.37181334080010E-11
(PID.TID 0000.0001) // =======================================================
(PID.TID 0000.0001) // Begin MONITOR dynamic field statistics
(PID.TID 0000.0001) // =======================================================
(PID.TID 0000.0001) %MON time_tsnumber                =                 17282
(PID.TID 0000.0001) %MON time_secondsf                =   7.7769000000000E+06
(PID.TID 0000.0001) %MON dynstat_eta_max              =   2.9925999029525E+03
(PID.TID 0000.0001) %MON dynstat_eta_min              =  -4.9027175423094E+03
(PID.TID 0000.0001) %MON dynstat_eta_mean             =   1.8490692135773E-13
(PID.TID 0000.0001) %MON dynstat_eta_sd               =   1.0323531011694E+03
(PID.TID 0000.0001) %MON dynstat_eta_del2             =   8.7846826589716E+01
(PID.TID 0000.0001) %MON dynstat_uvel_max             =   5.7897301397929E+01
(PID.TID 0000.0001) %MON dynstat_uvel_min             =  -6.3894125036401E+01
(PID.TID 0000.0001) %MON dynstat_uvel_mean            =   1.4129630897903E+00
(PID.TID 0000.0001) %MON dynstat_uvel_sd              =   1.1831898098015E+01
(PID.TID 0000.0001) %MON dynstat_uvel_del2            =   9.4790491360054E-01
(PID.TID 0000.0001) %MON dynstat_vvel_max             =   7.4229387471788E+01
(PID.TID 0000.0001) %MON dynstat_vvel_min             =  -5.8155210040483E+01
(PID.TID 0000.0001) %MON dynstat_vvel_mean            =   1.3837532412084E+00
(PID.TID 0000.0001) %MON dynstat_vvel_sd              =   1.2004166702062E+01
(PID.TID 0000.0001) %MON dynstat_vvel_del2            =   8.9905298121200E-01
(PID.TID 0000.0001) %MON dynstat_wvel_max             =   1.3300628195542E+00
(PID.TID 0000.0001) %MON dynstat_wvel_min             =  -1.1310003104897E+00
(PID.TID 0000.0001) %MON dynstat_wvel_mean            =  -9.3792471664859E-07
(PID.TID 0000.0001) %MON dynstat_wvel_sd              =   1.1569211525790E-01
(PID.TID 0000.0001) %MON dynstat_wvel_del2            =   3.0864854699846E-02
(PID.TID 0000.0001) %MON dynstat_theta_max            =   4.9364631201174E+02
(PID.TID 0000.0001) %MON dynstat_theta_min            =   2.4356984229870E+02
(PID.TID 0000.0001) %MON dynstat_theta_mean           =   3.3134874819112E+02
(PID.TID 0000.0001) %MON dynstat_theta_sd             =   4.8598963345839E+01
(PID.TID 0000.0001) %MON dynstat_theta_del2           =   8.5737284854991E-01
(PID.TID 0000.0001) %MON dynstat_salt_max             =   1.7908093003229E+01
(PID.TID 0000.0001) %MON dynstat_salt_min             =  -6.1936116539258E-01
(PID.TID 0000.0001) %MON dynstat_salt_mean            =   2.2636656367985E+00
(PID.TID 0000.0001) %MON dynstat_salt_sd              =   3.2564661827187E+00
(PID.TID 0000.0001) %MON dynstat_salt_del2            =   1.6744024577427E-01
(PID.TID 0000.0001) %MON advcfl_uvel_max              =   1.6026605430576E-01
(PID.TID 0000.0001) %MON advcfl_vvel_max              =   2.0402720699555E-01
(PID.TID 0000.0001) %MON advcfl_wvel_max              =   2.3941130751975E-02
(PID.TID 0000.0001) %MON advcfl_W_hf_max              =   1.1553654234584E-01
(PID.TID 0000.0001) %MON pe_b_mean                    =   4.7483540380748E+00
(PID.TID 0000.0001) %MON ke_max                       =   2.9776278220716E+03
(PID.TID 0000.0001) %MON ke_mean                      =   1.4291482441425E+02
(PID.TID 0000.0001) %MON ke_vol                       =   4.9349303958998E+19
(PID.TID 0000.0001) %MON vort_r_min                   =  -1.7433552793728E-04
(PID.TID 0000.0001) %MON vort_r_max                   =   2.1250798900073E-04
(PID.TID 0000.0001) %MON vort_a_mean                  =  -2.4268347792403E-08
(PID.TID 0000.0001) %MON vort_a_sd                    =   8.9045820482327E-05
(PID.TID 0000.0001) %MON vort_p_mean                  =  -2.4998856497150E-08
(PID.TID 0000.0001) %MON vort_p_sd                    =   9.6558968743035E-05
(PID.TID 0000.0001) %MON surfExpan_theta_mean         =  -2.7702191275937E-03
(PID.TID 0000.0001) %MON surfExpan_salt_mean          =  -1.3438959934040E-03
(PID.TID 0000.0001) %MON surfExpan_Heat_mean          =  -3.0030262150310E-01
(PID.TID 0000.0001) %MON En_Budget_T2PE_mean          =   2.0778763255881E+00
(PID.TID 0000.0001) // =======================================================
(PID.TID 0000.0001) // End MONITOR dynamic field statistics
(PID.TID 0000.0001) // =======================================================
 cg2d: Sum(rhs),rhsMax =   8.00531552158645E-09  2.13568856065864E+04
(PID.TID 0000.0001)                    cg2d_init_res =    1.24221338040644E+04
(PID.TID 0000.0001)                       cg2d_iters =    16
(PID.TID 0000.0001)                         cg2d_res =    7.34470228661808E-11
(PID.TID 0000.0001) // =======================================================
(PID.TID 0000.0001) // Begin MONITOR dynamic field statistics
(PID.TID 0000.0001) // =======================================================
(PID.TID 0000.0001) %MON time_tsnumber                =                 17283
(PID.TID 0000.0001) %MON time_secondsf                =   7.7773500000000E+06
(PID.TID 0000.0001) %MON dynstat_eta_max              =   2.9932998483270E+03
(PID.TID 0000.0001) %MON dynstat_eta_min              =  -4.9039414019788E+03
(PID.TID 0000.0001) %MON dynstat_eta_mean             =  -2.8256987532211E-13
(PID.TID 0000.0001) %MON dynstat_eta_sd               =   1.0322951708840E+03
(PID.TID 0000.0001) %MON dynstat_eta_del2             =   8.7825158413351E+01
(PID.TID 0000.0001) %MON dynstat_uvel_max             =   5.8095509617153E+01
(PID.TID 0000.0001) %MON dynstat_uvel_min             =  -6.3731688315373E+01
(PID.TID 0000.0001) %MON dynstat_uvel_mean            =   1.4134370595213E+00
(PID.TID 0000.0001) %MON dynstat_uvel_sd              =   1.1830919916867E+01
(PID.TID 0000.0001) %MON dynstat_uvel_del2            =   9.4789028345625E-01
(PID.TID 0000.0001) %MON dynstat_vvel_max             =   7.4181068483091E+01
(PID.TID 0000.0001) %MON dynstat_vvel_min             =  -5.8160406651815E+01
(PID.TID 0000.0001) %MON dynstat_vvel_mean            =   1.3839421678965E+00
(PID.TID 0000.0001) %MON dynstat_vvel_sd              =   1.2004472226083E+01
(PID.TID 0000.0001) %MON dynstat_vvel_del2            =   8.9927844110560E-01
(PID.TID 0000.0001) %MON dynstat_wvel_max             =   1.3399017545213E+00
(PID.TID 0000.0001) %MON dynstat_wvel_min             =  -1.1258910364233E+00
(PID.TID 0000.0001) %MON dynstat_wvel_mean            =  -1.0275816619417E-06
(PID.TID 0000.0001) %MON dynstat_wvel_sd              =   1.1572169485158E-01
(PID.TID 0000.0001) %MON dynstat_wvel_del2            =   3.0883161830231E-02
(PID.TID 0000.0001) %MON dynstat_theta_max            =   4.9364788301190E+02
(PID.TID 0000.0001) %MON dynstat_theta_min            =   2.4377291224597E+02
(PID.TID 0000.0001) %MON dynstat_theta_mean           =   3.3134942585245E+02
(PID.TID 0000.0001) %MON dynstat_theta_sd             =   4.8598107169969E+01
(PID.TID 0000.0001) %MON dynstat_theta_del2           =   8.5732239161205E-01
(PID.TID 0000.0001) %MON dynstat_salt_max             =   1.8082203474238E+01
(PID.TID 0000.0001) %MON dynstat_salt_min             =  -6.1886852883366E-01
(PID.TID 0000.0001) %MON dynstat_salt_mean            =   2.2641956865897E+00
(PID.TID 0000.0001) %MON dynstat_salt_sd              =   3.2572388762077E+00
(PID.TID 0000.0001) %MON dynstat_salt_del2            =   1.6749837279841E-01
(PID.TID 0000.0001) %MON advcfl_uvel_max              =   1.5997600487934E-01
(PID.TID 0000.0001) %MON advcfl_vvel_max              =   2.0383433131036E-01
(PID.TID 0000.0001) %MON advcfl_wvel_max              =   2.4118231581383E-02
(PID.TID 0000.0001) %MON advcfl_W_hf_max              =   1.1558545129638E-01
(PID.TID 0000.0001) %MON pe_b_mean                    =   4.7479721061359E+00
(PID.TID 0000.0001) %MON ke_max                       =   2.9675367573002E+03
(PID.TID 0000.0001) %MON ke_mean                      =   1.4290790614999E+02
(PID.TID 0000.0001) %MON ke_vol                       =   4.9349303958998E+19
(PID.TID 0000.0001) %MON vort_r_min                   =  -1.7225318339369E-04
(PID.TID 0000.0001) %MON vort_r_max                   =   2.1226643827057E-04
(PID.TID 0000.0001) %MON vort_a_mean                  =  -2.4188720716247E-08
(PID.TID 0000.0001) %MON vort_a_sd                    =   8.9045666019764E-05
(PID.TID 0000.0001) %MON vort_p_mean                  =  -2.4916832542857E-08
(PID.TID 0000.0001) %MON vort_p_sd                    =   9.6560823880423E-05
(PID.TID 0000.0001) %MON surfExpan_theta_mean         =  -2.4804428558678E-03
(PID.TID 0000.0001) %MON surfExpan_salt_mean          =  -1.2518818995080E-03
(PID.TID 0000.0001) %MON surfExpan_Heat_mean          =  -2.7437552199007E-01
(PID.TID 0000.0001) %MON En_Budget_T2PE_mean          =   2.0822695544814E+00
(PID.TID 0000.0001) // =======================================================
(PID.TID 0000.0001) // End MONITOR dynamic field statistics
(PID.TID 0000.0001) // =======================================================
 cg2d: Sum(rhs),rhsMax =  -1.76286789610458E-08  2.13641176077155E+04
(PID.TID 0000.0001)                    cg2d_init_res =    1.24229213177199E+04
(PID.TID 0000.0001)                       cg2d_iters =    16
(PID.TID 0000.0001)                         cg2d_res =    7.32877513975183E-11
(PID.TID 0000.0001) // =======================================================
(PID.TID 0000.0001) // Begin MONITOR dynamic field statistics
(PID.TID 0000.0001) // =======================================================
(PID.TID 0000.0001) %MON time_tsnumber                =                 17284
(PID.TID 0000.0001) %MON time_secondsf                =   7.7778000000000E+06
(PID.TID 0000.0001) %MON dynstat_eta_max              =   2.9939646396421E+03
(PID.TID 0000.0001) %MON dynstat_eta_min              =  -4.9050136430081E+03
(PID.TID 0000.0001) %MON dynstat_eta_mean             =  -3.4680818826930E-13
(PID.TID 0000.0001) %MON dynstat_eta_sd               =   1.0322328999021E+03
(PID.TID 0000.0001) %MON dynstat_eta_del2             =   8.7804473929679E+01
(PID.TID 0000.0001) %MON dynstat_uvel_max             =   5.8291761989104E+01
(PID.TID 0000.0001) %MON dynstat_uvel_min             =  -6.3563830427557E+01
(PID.TID 0000.0001) %MON dynstat_uvel_mean            =   1.4139235585804E+00
(PID.TID 0000.0001) %MON dynstat_uvel_sd              =   1.1829947940917E+01
(PID.TID 0000.0001) %MON dynstat_uvel_del2            =   9.4791967055350E-01
(PID.TID 0000.0001) %MON dynstat_vvel_max             =   7.4128585537364E+01
(PID.TID 0000.0001) %MON dynstat_vvel_min             =  -5.8164804337114E+01
(PID.TID 0000.0001) %MON dynstat_vvel_mean            =   1.3841079001451E+00
(PID.TID 0000.0001) %MON dynstat_vvel_sd              =   1.2004780660144E+01
(PID.TID 0000.0001) %MON dynstat_vvel_del2            =   8.9949701511790E-01
(PID.TID 0000.0001) %MON dynstat_wvel_max             =   1.3495567042772E+00
(PID.TID 0000.0001) %MON dynstat_wvel_min             =  -1.1310695395046E+00
(PID.TID 0000.0001) %MON dynstat_wvel_mean            =  -1.1720306284209E-06
(PID.TID 0000.0001) %MON dynstat_wvel_sd              =   1.1575294899549E-01
(PID.TID 0000.0001) %MON dynstat_wvel_del2            =   3.0898534492894E-02
(PID.TID 0000.0001) %MON dynstat_theta_max            =   4.9364940400241E+02
(PID.TID 0000.0001) %MON dynstat_theta_min            =   2.4397056186230E+02
(PID.TID 0000.0001) %MON dynstat_theta_mean           =   3.3135007891392E+02
(PID.TID 0000.0001) %MON dynstat_theta_sd             =   4.8597276751987E+01
(PID.TID 0000.0001) %MON dynstat_theta_del2           =   8.5729961841613E-01
(PID.TID 0000.0001) %MON dynstat_salt_max             =   1.8246591615520E+01
(PID.TID 0000.0001) %MON dynstat_salt_min             =  -6.1840529466790E-01
(PID.TID 0000.0001) %MON dynstat_salt_mean            =   2.2647242609530E+00
(PID.TID 0000.0001) %MON dynstat_salt_sd              =   3.2580067375985E+00
(PID.TID 0000.0001) %MON dynstat_salt_del2            =   1.6756496547452E-01
(PID.TID 0000.0001) %MON advcfl_uvel_max              =   1.5968707167174E-01
(PID.TID 0000.0001) %MON advcfl_vvel_max              =   2.0364426800592E-01
(PID.TID 0000.0001) %MON advcfl_wvel_max              =   2.4292020676989E-02
(PID.TID 0000.0001) %MON advcfl_W_hf_max              =   1.1567029161386E-01
(PID.TID 0000.0001) %MON pe_b_mean                    =   4.7475585599573E+00
(PID.TID 0000.0001) %MON ke_max                       =   2.9568101952985E+03
(PID.TID 0000.0001) %MON ke_mean                      =   1.4290108180891E+02
(PID.TID 0000.0001) %MON ke_vol                       =   4.9349303958998E+19
(PID.TID 0000.0001) %MON vort_r_min                   =  -1.7006144926056E-04
(PID.TID 0000.0001) %MON vort_r_max                   =   2.1240302307337E-04
(PID.TID 0000.0001) %MON vort_a_mean                  =  -2.4108631893891E-08
(PID.TID 0000.0001) %MON vort_a_sd                    =   8.9045550728112E-05
(PID.TID 0000.0001) %MON vort_p_mean                  =  -2.4834332943205E-08
(PID.TID 0000.0001) %MON vort_p_sd                    =   9.6562696124964E-05
(PID.TID 0000.0001) %MON surfExpan_theta_mean         =  -2.1787406563963E-03
(PID.TID 0000.0001) %MON surfExpan_salt_mean          =  -1.1597787864765E-03
(PID.TID 0000.0001) %MON surfExpan_Heat_mean          =  -2.4810457399711E-01
(PID.TID 0000.0001) %MON En_Budget_T2PE_mean          =   2.0866515112455E+00
(PID.TID 0000.0001) // =======================================================
(PID.TID 0000.0001) // End MONITOR dynamic field statistics
(PID.TID 0000.0001) // =======================================================
 cg2d: Sum(rhs),rhsMax =  -1.52954839904851E-08  2.13704995096702E+04
(PID.TID 0000.0001)                    cg2d_init_res =    1.24295309794048E+04
(PID.TID 0000.0001)                       cg2d_iters =    16
(PID.TID 0000.0001)                         cg2d_res =    7.33625189398357E-11
(PID.TID 0000.0001) // =======================================================
(PID.TID 0000.0001) // Begin MONITOR dynamic field statistics
(PID.TID 0000.0001) // =======================================================
(PID.TID 0000.0001) %MON time_tsnumber                =                 17285
(PID.TID 0000.0001) %MON time_secondsf                =   7.7782500000000E+06
(PID.TID 0000.0001) %MON dynstat_eta_max              =   2.9945813561781E+03
(PID.TID 0000.0001) %MON dynstat_eta_min              =  -4.9059315169109E+03
(PID.TID 0000.0001) %MON dynstat_eta_mean             =  -9.1100753738372E-15
(PID.TID 0000.0001) %MON dynstat_eta_sd               =   1.0321700538275E+03
(PID.TID 0000.0001) %MON dynstat_eta_del2             =   8.7785044925790E+01
(PID.TID 0000.0001) %MON dynstat_uvel_max             =   5.8485949787672E+01
(PID.TID 0000.0001) %MON dynstat_uvel_min             =  -6.3390463631820E+01
(PID.TID 0000.0001) %MON dynstat_uvel_mean            =   1.4144221983658E+00
(PID.TID 0000.0001) %MON dynstat_uvel_sd              =   1.1828981375669E+01
(PID.TID 0000.0001) %MON dynstat_uvel_del2            =   9.4796214240134E-01
(PID.TID 0000.0001) %MON dynstat_vvel_max             =   7.4071793727161E+01
(PID.TID 0000.0001) %MON dynstat_vvel_min             =  -5.8168667531222E+01
(PID.TID 0000.0001) %MON dynstat_vvel_mean            =   1.3842506966453E+00
(PID.TID 0000.0001) %MON dynstat_vvel_sd              =   1.2005086440944E+01
(PID.TID 0000.0001) %MON dynstat_vvel_del2            =   8.9971629245910E-01
(PID.TID 0000.0001) %MON dynstat_wvel_max             =   1.3590404092266E+00
(PID.TID 0000.0001) %MON dynstat_wvel_min             =  -1.1351121235377E+00
(PID.TID 0000.0001) %MON dynstat_wvel_mean            =  -1.4038395241592E-06
(PID.TID 0000.0001) %MON dynstat_wvel_sd              =   1.1578364613140E-01
(PID.TID 0000.0001) %MON dynstat_wvel_del2            =   3.0913184513775E-02
(PID.TID 0000.0001) %MON dynstat_theta_max            =   4.9365067444153E+02
(PID.TID 0000.0001) %MON dynstat_theta_min            =   2.4404182905949E+02
(PID.TID 0000.0001) %MON dynstat_theta_mean           =   3.3135073529762E+02
(PID.TID 0000.0001) %MON dynstat_theta_sd             =   4.8596461815122E+01
(PID.TID 0000.0001) %MON dynstat_theta_del2           =   8.5727435092682E-01
(PID.TID 0000.0001) %MON dynstat_salt_max             =   1.8401810982732E+01
(PID.TID 0000.0001) %MON dynstat_salt_min             =  -6.1797107742187E-01
(PID.TID 0000.0001) %MON dynstat_salt_mean            =   2.2652419730011E+00
(PID.TID 0000.0001) %MON dynstat_salt_sd              =   3.2587705023092E+00
(PID.TID 0000.0001) %MON dynstat_salt_del2            =   1.6766498745161E-01
(PID.TID 0000.0001) %MON advcfl_uvel_max              =   1.5939909541667E-01
(PID.TID 0000.0001) %MON advcfl_vvel_max              =   2.0345788724906E-01
(PID.TID 0000.0001) %MON advcfl_wvel_max              =   2.4462727366078E-02
(PID.TID 0000.0001) %MON advcfl_W_hf_max              =   1.1577483818347E-01
(PID.TID 0000.0001) %MON pe_b_mean                    =   4.7471472484605E+00
(PID.TID 0000.0001) %MON ke_max                       =   2.9454555236646E+03
(PID.TID 0000.0001) %MON ke_mean                      =   1.4289427554751E+02
(PID.TID 0000.0001) %MON ke_vol                       =   4.9349303958998E+19
(PID.TID 0000.0001) %MON vort_r_min                   =  -1.6776791439317E-04
(PID.TID 0000.0001) %MON vort_r_max                   =   2.1290650424821E-04
(PID.TID 0000.0001) %MON vort_a_mean                  =  -2.4028281508285E-08
(PID.TID 0000.0001) %MON vort_a_sd                    =   8.9045470316025E-05
(PID.TID 0000.0001) %MON vort_p_mean                  =  -2.4751563906909E-08
(PID.TID 0000.0001) %MON vort_p_sd                    =   9.6564586193960E-05
(PID.TID 0000.0001) %MON surfExpan_theta_mean         =  -1.8563833626863E-03
(PID.TID 0000.0001) %MON surfExpan_salt_mean          =  -1.0706964690372E-03
(PID.TID 0000.0001) %MON surfExpan_Heat_mean          =  -2.2165152193025E-01
(PID.TID 0000.0001) %MON En_Budget_T2PE_mean          =   2.0920405596949E+00
(PID.TID 0000.0001) // =======================================================
(PID.TID 0000.0001) // End MONITOR dynamic field statistics
(PID.TID 0000.0001) // =======================================================
 cg2d: Sum(rhs),rhsMax =   2.36064465752861E-08  2.13759384255603E+04
(PID.TID 0000.0001)                    cg2d_init_res =    1.24381519054562E+04
(PID.TID 0000.0001)                       cg2d_iters =    16
(PID.TID 0000.0001)                         cg2d_res =    7.36000515453037E-11
(PID.TID 0000.0001) // =======================================================
(PID.TID 0000.0001) // Begin MONITOR dynamic field statistics
(PID.TID 0000.0001) // =======================================================
(PID.TID 0000.0001) %MON time_tsnumber                =                 17286
(PID.TID 0000.0001) %MON time_secondsf                =   7.7787000000000E+06
(PID.TID 0000.0001) %MON dynstat_eta_max              =   2.9951318687610E+03
(PID.TID 0000.0001) %MON dynstat_eta_min              =  -4.9066827517864E+03
(PID.TID 0000.0001) %MON dynstat_eta_mean             =   5.8365533669447E-13
(PID.TID 0000.0001) %MON dynstat_eta_sd               =   1.0321098059089E+03
(PID.TID 0000.0001) %MON dynstat_eta_del2             =   8.7770694725106E+01
(PID.TID 0000.0001) %MON dynstat_uvel_max             =   5.8677974265405E+01
(PID.TID 0000.0001) %MON dynstat_uvel_min             =  -6.3210229159992E+01
(PID.TID 0000.0001) %MON dynstat_uvel_mean            =   1.4149308496604E+00
(PID.TID 0000.0001) %MON dynstat_uvel_sd              =   1.1828020151340E+01
(PID.TID 0000.0001) %MON dynstat_uvel_del2            =   9.4802659592000E-01
(PID.TID 0000.0001) %MON dynstat_vvel_max             =   7.4010427518819E+01
(PID.TID 0000.0001) %MON dynstat_vvel_min             =  -5.8172205674475E+01
(PID.TID 0000.0001) %MON dynstat_vvel_mean            =   1.3843727876670E+00
(PID.TID 0000.0001) %MON dynstat_vvel_sd              =   1.2005384328295E+01
(PID.TID 0000.0001) %MON dynstat_vvel_del2            =   8.9994627223312E-01
(PID.TID 0000.0001) %MON dynstat_wvel_max             =   1.3683612922623E+00
(PID.TID 0000.0001) %MON dynstat_wvel_min             =  -1.1380483532786E+00
(PID.TID 0000.0001) %MON dynstat_wvel_mean            =  -1.6373506270331E-06
(PID.TID 0000.0001) %MON dynstat_wvel_sd              =   1.1581399125169E-01
(PID.TID 0000.0001) %MON dynstat_wvel_del2            =   3.0925620345827E-02
(PID.TID 0000.0001) %MON dynstat_theta_max            =   4.9365131724914E+02
(PID.TID 0000.0001) %MON dynstat_theta_min            =   2.4408039195142E+02
(PID.TID 0000.0001) %MON dynstat_theta_mean           =   3.3135138907495E+02
(PID.TID 0000.0001) %MON dynstat_theta_sd             =   4.8595659310426E+01
(PID.TID 0000.0001) %MON dynstat_theta_del2           =   8.5728212263446E-01
(PID.TID 0000.0001) %MON dynstat_salt_max             =   1.8548335649813E+01
(PID.TID 0000.0001) %MON dynstat_salt_min             =  -6.1755908576314E-01
(PID.TID 0000.0001) %MON dynstat_salt_mean            =   2.2657504241017E+00
(PID.TID 0000.0001) %MON dynstat_salt_sd              =   3.2595190574740E+00
(PID.TID 0000.0001) %MON dynstat_salt_del2            =   1.6776933917163E-01
(PID.TID 0000.0001) %MON advcfl_uvel_max              =   1.5911225839723E-01
(PID.TID 0000.0001) %MON advcfl_vvel_max              =   2.0327536832045E-01
(PID.TID 0000.0001) %MON advcfl_wvel_max              =   2.4630503260721E-02
(PID.TID 0000.0001) %MON advcfl_W_hf_max              =   1.1586882221042E-01
(PID.TID 0000.0001) %MON pe_b_mean                    =   4.7467653123890E+00
(PID.TID 0000.0001) %MON ke_max                       =   2.9334782161455E+03
(PID.TID 0000.0001) %MON ke_mean                      =   1.4288742415036E+02
(PID.TID 0000.0001) %MON ke_vol                       =   4.9349303958998E+19
(PID.TID 0000.0001) %MON vort_r_min                   =  -1.6538021037354E-04
(PID.TID 0000.0001) %MON vort_r_max                   =   2.1339882350831E-04
(PID.TID 0000.0001) %MON vort_a_mean                  =  -2.3947842098234E-08
(PID.TID 0000.0001) %MON vort_a_sd                    =   8.9045420858978E-05
(PID.TID 0000.0001) %MON vort_p_mean                  =  -2.4668703166418E-08
(PID.TID 0000.0001) %MON vort_p_sd                    =   9.6566492109224E-05
(PID.TID 0000.0001) %MON surfExpan_theta_mean         =  -1.5210521222364E-03
(PID.TID 0000.0001) %MON surfExpan_salt_mean          =  -9.8229509432636E-04
(PID.TID 0000.0001) %MON surfExpan_Heat_mean          =  -1.9361029511697E-01
(PID.TID 0000.0001) %MON En_Budget_T2PE_mean          =   2.0965001162182E+00
(PID.TID 0000.0001) // =======================================================
(PID.TID 0000.0001) // End MONITOR dynamic field statistics
(PID.TID 0000.0001) // =======================================================
 cg2d: Sum(rhs),rhsMax =  -5.43644773642882E-09  2.13803604422628E+04
(PID.TID 0000.0001)                    cg2d_init_res =    1.24477635659590E+04
(PID.TID 0000.0001)                       cg2d_iters =    16
(PID.TID 0000.0001)                         cg2d_res =    7.39193894215165E-11
(PID.TID 0000.0001) // =======================================================
(PID.TID 0000.0001) // Begin MONITOR dynamic field statistics
(PID.TID 0000.0001) // =======================================================
(PID.TID 0000.0001) %MON time_tsnumber                =                 17287
(PID.TID 0000.0001) %MON time_secondsf                =   7.7791500000000E+06
(PID.TID 0000.0001) %MON dynstat_eta_max              =   2.9956080839530E+03
(PID.TID 0000.0001) %MON dynstat_eta_min              =  -4.9072609376854E+03
(PID.TID 0000.0001) %MON dynstat_eta_mean             =   1.0073114267509E-13
(PID.TID 0000.0001) %MON dynstat_eta_sd               =   1.0320547215457E+03
(PID.TID 0000.0001) %MON dynstat_eta_del2             =   8.7762077663292E+01
(PID.TID 0000.0001) %MON dynstat_uvel_max             =   5.8867725628675E+01
(PID.TID 0000.0001) %MON dynstat_uvel_min             =  -6.3025250031621E+01
(PID.TID 0000.0001) %MON dynstat_uvel_mean            =   1.4154507728309E+00
(PID.TID 0000.0001) %MON dynstat_uvel_sd              =   1.1827066196178E+01
(PID.TID 0000.0001) %MON dynstat_uvel_del2            =   9.4815973198012E-01
(PID.TID 0000.0001) %MON dynstat_vvel_max             =   7.3944415284788E+01
(PID.TID 0000.0001) %MON dynstat_vvel_min             =  -5.8175455349726E+01
(PID.TID 0000.0001) %MON dynstat_vvel_mean            =   1.3844725576741E+00
(PID.TID 0000.0001) %MON dynstat_vvel_sd              =   1.2005667946031E+01
(PID.TID 0000.0001) %MON dynstat_vvel_del2            =   9.0016294883346E-01
(PID.TID 0000.0001) %MON dynstat_wvel_max             =   1.3775203080199E+00
(PID.TID 0000.0001) %MON dynstat_wvel_min             =  -1.1399058086887E+00
(PID.TID 0000.0001) %MON dynstat_wvel_mean            =  -1.7744764570345E-06
(PID.TID 0000.0001) %MON dynstat_wvel_sd              =   1.1584316404938E-01
(PID.TID 0000.0001) %MON dynstat_wvel_del2            =   3.0937982700316E-02
(PID.TID 0000.0001) %MON dynstat_theta_max            =   4.9365086622859E+02
(PID.TID 0000.0001) %MON dynstat_theta_min            =   2.4411903401785E+02
(PID.TID 0000.0001) %MON dynstat_theta_mean           =   3.3135203730239E+02
(PID.TID 0000.0001) %MON dynstat_theta_sd             =   4.8594879390227E+01
(PID.TID 0000.0001) %MON dynstat_theta_del2           =   8.5729249258952E-01
(PID.TID 0000.0001) %MON dynstat_salt_max             =   1.8686600472713E+01
(PID.TID 0000.0001) %MON dynstat_salt_min             =  -6.1716514217490E-01
(PID.TID 0000.0001) %MON dynstat_salt_mean            =   2.2662513219135E+00
(PID.TID 0000.0001) %MON dynstat_salt_sd              =   3.2602587832083E+00
(PID.TID 0000.0001) %MON dynstat_salt_del2            =   1.6788141163042E-01
(PID.TID 0000.0001) %MON advcfl_uvel_max              =   1.5882706059488E-01
(PID.TID 0000.0001) %MON advcfl_vvel_max              =   2.0309695065993E-01
(PID.TID 0000.0001) %MON advcfl_wvel_max              =   2.4795365544358E-02
(PID.TID 0000.0001) %MON advcfl_W_hf_max              =   1.1595826783616E-01
(PID.TID 0000.0001) %MON pe_b_mean                    =   4.7464339577292E+00
(PID.TID 0000.0001) %MON ke_max                       =   2.9208842188288E+03
(PID.TID 0000.0001) %MON ke_mean                      =   1.4288047378987E+02
(PID.TID 0000.0001) %MON ke_vol                       =   4.9349303958998E+19
(PID.TID 0000.0001) %MON vort_r_min                   =  -1.6290600030055E-04
(PID.TID 0000.0001) %MON vort_r_max                   =   2.1387975792683E-04
(PID.TID 0000.0001) %MON vort_a_mean                  =  -2.3867458582760E-08
(PID.TID 0000.0001) %MON vort_a_sd                    =   8.9045398762429E-05
(PID.TID 0000.0001) %MON vort_p_mean                  =  -2.4585900003002E-08
(PID.TID 0000.0001) %MON vort_p_sd                    =   9.6568410608207E-05
(PID.TID 0000.0001) %MON surfExpan_theta_mean         =  -1.1858402870255E-03
(PID.TID 0000.0001) %MON surfExpan_salt_mean          =  -8.8928927889076E-04
(PID.TID 0000.0001) %MON surfExpan_Heat_mean          =  -1.6291733977039E-01
(PID.TID 0000.0001) %MON En_Budget_T2PE_mean          =   2.0977656323479E+00
(PID.TID 0000.0001) // =======================================================
(PID.TID 0000.0001) // End MONITOR dynamic field statistics
(PID.TID 0000.0001) // =======================================================
 cg2d: Sum(rhs),rhsMax =   1.37486608764448E-08  2.13837817061339E+04
(PID.TID 0000.0001)                    cg2d_init_res =    1.24590240964764E+04
(PID.TID 0000.0001)                       cg2d_iters =    16
(PID.TID 0000.0001)                         cg2d_res =    7.42548613148625E-11
(PID.TID 0000.0001) // =======================================================
(PID.TID 0000.0001) // Begin MONITOR dynamic field statistics
(PID.TID 0000.0001) // =======================================================
(PID.TID 0000.0001) %MON time_tsnumber                =                 17288
(PID.TID 0000.0001) %MON time_secondsf                =   7.7796000000000E+06
(PID.TID 0000.0001) %MON dynstat_eta_max              =   2.9960213823724E+03
(PID.TID 0000.0001) %MON dynstat_eta_min              =  -4.9076710457194E+03
(PID.TID 0000.0001) %MON dynstat_eta_mean             =   2.3637994224756E-13
(PID.TID 0000.0001) %MON dynstat_eta_sd               =   1.0320069419868E+03
(PID.TID 0000.0001) %MON dynstat_eta_del2             =   8.7755720453964E+01
(PID.TID 0000.0001) %MON dynstat_uvel_max             =   5.9055079346308E+01
(PID.TID 0000.0001) %MON dynstat_uvel_min             =  -6.2835778554404E+01
(PID.TID 0000.0001) %MON dynstat_uvel_mean            =   1.4159814634434E+00
(PID.TID 0000.0001) %MON dynstat_uvel_sd              =   1.1826121241947E+01
(PID.TID 0000.0001) %MON dynstat_uvel_del2            =   9.4832323040479E-01
(PID.TID 0000.0001) %MON dynstat_vvel_max             =   7.3873629204362E+01
(PID.TID 0000.0001) %MON dynstat_vvel_min             =  -5.8178236452953E+01
(PID.TID 0000.0001) %MON dynstat_vvel_mean            =   1.3845506668915E+00
(PID.TID 0000.0001) %MON dynstat_vvel_sd              =   1.2005931525766E+01
(PID.TID 0000.0001) %MON dynstat_vvel_del2            =   9.0039966271304E-01
(PID.TID 0000.0001) %MON dynstat_wvel_max             =   1.3865118587397E+00
(PID.TID 0000.0001) %MON dynstat_wvel_min             =  -1.1407050991908E+00
(PID.TID 0000.0001) %MON dynstat_wvel_mean            =  -1.7691763095191E-06
(PID.TID 0000.0001) %MON dynstat_wvel_sd              =   1.1587116771180E-01
(PID.TID 0000.0001) %MON dynstat_wvel_del2            =   3.0950543142528E-02
(PID.TID 0000.0001) %MON dynstat_theta_max            =   4.9364885652564E+02
(PID.TID 0000.0001) %MON dynstat_theta_min            =   2.4415761701348E+02
(PID.TID 0000.0001) %MON dynstat_theta_mean           =   3.3135267977440E+02
(PID.TID 0000.0001) %MON dynstat_theta_sd             =   4.8594112222460E+01
(PID.TID 0000.0001) %MON dynstat_theta_del2           =   8.5727361823992E-01
(PID.TID 0000.0001) %MON dynstat_salt_max             =   1.8817011137663E+01
(PID.TID 0000.0001) %MON dynstat_salt_min             =  -6.1678426038393E-01
(PID.TID 0000.0001) %MON dynstat_salt_mean            =   2.2667445851681E+00
(PID.TID 0000.0001) %MON dynstat_salt_sd              =   3.2609955210014E+00
(PID.TID 0000.0001) %MON dynstat_salt_del2            =   1.6800134281952E-01
(PID.TID 0000.0001) %MON advcfl_uvel_max              =   1.5854387992786E-01
(PID.TID 0000.0001) %MON advcfl_vvel_max              =   2.0292283691338E-01
(PID.TID 0000.0001) %MON advcfl_wvel_max              =   2.4957213457315E-02
(PID.TID 0000.0001) %MON advcfl_W_hf_max              =   1.1601716601916E-01
(PID.TID 0000.0001) %MON pe_b_mean                    =   4.7461701215309E+00
(PID.TID 0000.0001) %MON ke_max                       =   2.9076812264102E+03
(PID.TID 0000.0001) %MON ke_mean                      =   1.4287337623051E+02
(PID.TID 0000.0001) %MON ke_vol                       =   4.9349303958998E+19
(PID.TID 0000.0001) %MON vort_r_min                   =  -1.6035291821659E-04
(PID.TID 0000.0001) %MON vort_r_max                   =   2.1434915584807E-04
(PID.TID 0000.0001) %MON vort_a_mean                  =  -2.3787292009331E-08
(PID.TID 0000.0001) %MON vort_a_sd                    =   8.9045400459290E-05
(PID.TID 0000.0001) %MON vort_p_mean                  =  -2.4503320311868E-08
(PID.TID 0000.0001) %MON vort_p_sd                    =   9.6570338613842E-05
(PID.TID 0000.0001) %MON surfExpan_theta_mean         =  -8.6124315471263E-04
(PID.TID 0000.0001) %MON surfExpan_salt_mean          =  -7.8899607689644E-04
(PID.TID 0000.0001) %MON surfExpan_Heat_mean          =  -1.2968505928846E-01
(PID.TID 0000.0001) %MON En_Budget_T2PE_mean          =   2.0950694865808E+00
(PID.TID 0000.0001) // =======================================================
(PID.TID 0000.0001) // End MONITOR dynamic field statistics
(PID.TID 0000.0001) // =======================================================
 cg2d: Sum(rhs),rhsMax =   7.05881575413514E-09  2.13862905048185E+04
(PID.TID 0000.0001)                    cg2d_init_res =    1.24709943067337E+04
(PID.TID 0000.0001)                       cg2d_iters =    16
(PID.TID 0000.0001)                         cg2d_res =    7.46450530858595E-11
(PID.TID 0000.0001) // =======================================================
(PID.TID 0000.0001) // Begin MONITOR dynamic field statistics
(PID.TID 0000.0001) // =======================================================
(PID.TID 0000.0001) %MON time_tsnumber                =                 17289
(PID.TID 0000.0001) %MON time_secondsf                =   7.7800500000000E+06
(PID.TID 0000.0001) %MON dynstat_eta_max              =   2.9964047051152E+03
(PID.TID 0000.0001) %MON dynstat_eta_min              =  -4.9079295632960E+03
(PID.TID 0000.0001) %MON dynstat_eta_mean             =  -1.8570126761905E-13
(PID.TID 0000.0001) %MON dynstat_eta_sd               =   1.0319678916775E+03
(PID.TID 0000.0001) %MON dynstat_eta_del2             =   8.7748585160285E+01
(PID.TID 0000.0001) %MON dynstat_uvel_max             =   5.9239904953529E+01
(PID.TID 0000.0001) %MON dynstat_uvel_min             =  -6.2812958626237E+01
(PID.TID 0000.0001) %MON dynstat_uvel_mean            =   1.4165212838711E+00
(PID.TID 0000.0001) %MON dynstat_uvel_sd              =   1.1825185782132E+01
(PID.TID 0000.0001) %MON dynstat_uvel_del2            =   9.4852575544490E-01
(PID.TID 0000.0001) %MON dynstat_vvel_max             =   7.3797986375920E+01
(PID.TID 0000.0001) %MON dynstat_vvel_min             =  -5.8180389612576E+01
(PID.TID 0000.0001) %MON dynstat_vvel_mean            =   1.3846086378813E+00
(PID.TID 0000.0001) %MON dynstat_vvel_sd              =   1.2006171497742E+01
(PID.TID 0000.0001) %MON dynstat_vvel_del2            =   9.0063068086758E-01
(PID.TID 0000.0001) %MON dynstat_wvel_max             =   1.3953227378089E+00
(PID.TID 0000.0001) %MON dynstat_wvel_min             =  -1.1404645624227E+00
(PID.TID 0000.0001) %MON dynstat_wvel_mean            =  -1.5955989095932E-06
(PID.TID 0000.0001) %MON dynstat_wvel_sd              =   1.1589905938792E-01
(PID.TID 0000.0001) %MON dynstat_wvel_del2            =   3.0964270479192E-02
(PID.TID 0000.0001) %MON dynstat_theta_max            =   4.9364492172812E+02
(PID.TID 0000.0001) %MON dynstat_theta_min            =   2.4419613635131E+02
(PID.TID 0000.0001) %MON dynstat_theta_mean           =   3.3135332190482E+02
(PID.TID 0000.0001) %MON dynstat_theta_sd             =   4.8593361016311E+01
(PID.TID 0000.0001) %MON dynstat_theta_del2           =   8.5732729192591E-01
(PID.TID 0000.0001) %MON dynstat_salt_max             =   1.8939954655624E+01
(PID.TID 0000.0001) %MON dynstat_salt_min             =  -6.1641254189106E-01
(PID.TID 0000.0001) %MON dynstat_salt_mean            =   2.2672288764786E+00
(PID.TID 0000.0001) %MON dynstat_salt_sd              =   3.2617215036490E+00
(PID.TID 0000.0001) %MON dynstat_salt_del2            =   1.6813927771652E-01
(PID.TID 0000.0001) %MON advcfl_uvel_max              =   1.5826279114064E-01
(PID.TID 0000.0001) %MON advcfl_vvel_max              =   2.0275297123162E-01
(PID.TID 0000.0001) %MON advcfl_wvel_max              =   2.5115809280560E-02
(PID.TID 0000.0001) %MON advcfl_W_hf_max              =   1.1604483694199E-01
(PID.TID 0000.0001) %MON pe_b_mean                    =   4.7459845477569E+00
(PID.TID 0000.0001) %MON ke_max                       =   2.9023137359420E+03
(PID.TID 0000.0001) %MON ke_mean                      =   1.4286609448469E+02
(PID.TID 0000.0001) %MON ke_vol                       =   4.9349303958998E+19
(PID.TID 0000.0001) %MON vort_r_min                   =  -1.5772857575234E-04
(PID.TID 0000.0001) %MON vort_r_max                   =   2.1480691082918E-04
(PID.TID 0000.0001) %MON vort_a_mean                  =  -2.3707556864632E-08
(PID.TID 0000.0001) %MON vort_a_sd                    =   8.9045422910072E-05
(PID.TID 0000.0001) %MON vort_p_mean                  =  -2.4421185036029E-08
(PID.TID 0000.0001) %MON vort_p_sd                    =   9.6572276440595E-05
(PID.TID 0000.0001) %MON surfExpan_theta_mean         =  -5.5394931530804E-04
(PID.TID 0000.0001) %MON surfExpan_salt_mean          =  -6.8235253014242E-04
(PID.TID 0000.0001) %MON surfExpan_Heat_mean          =  -9.3982038040386E-02
(PID.TID 0000.0001) %MON En_Budget_T2PE_mean          =   2.0880190440343E+00
(PID.TID 0000.0001) // =======================================================
(PID.TID 0000.0001) // End MONITOR dynamic field statistics
(PID.TID 0000.0001) // =======================================================
 cg2d: Sum(rhs),rhsMax =  -9.12734776647994E-09  2.13880064025312E+04
(PID.TID 0000.0001)                    cg2d_init_res =    1.24844316233578E+04
(PID.TID 0000.0001)                       cg2d_iters =    16
(PID.TID 0000.0001)                         cg2d_res =    7.49925317535332E-11
(PID.TID 0000.0001) // =======================================================
(PID.TID 0000.0001) // Begin MONITOR dynamic field statistics
(PID.TID 0000.0001) // =======================================================
(PID.TID 0000.0001) %MON time_tsnumber                =                 17290
(PID.TID 0000.0001) %MON time_secondsf                =   7.7805000000000E+06
(PID.TID 0000.0001) %MON dynstat_eta_max              =   2.9968064031709E+03
(PID.TID 0000.0001) %MON dynstat_eta_min              =  -4.9080532347676E+03
(PID.TID 0000.0001) %MON dynstat_eta_mean             =  -1.2855859745458E-13
(PID.TID 0000.0001) %MON dynstat_eta_sd               =   1.0319383520986E+03
(PID.TID 0000.0001) %MON dynstat_eta_del2             =   8.7737530095489E+01
(PID.TID 0000.0001) %MON dynstat_uvel_max             =   5.9422085904847E+01
(PID.TID 0000.0001) %MON dynstat_uvel_min             =  -6.2808287160232E+01
(PID.TID 0000.0001) %MON dynstat_uvel_mean            =   1.4170717017085E+00
(PID.TID 0000.0001) %MON dynstat_uvel_sd              =   1.1824262857900E+01
(PID.TID 0000.0001) %MON dynstat_uvel_del2            =   9.4871382611411E-01
(PID.TID 0000.0001) %MON dynstat_vvel_max             =   7.3717440704180E+01
(PID.TID 0000.0001) %MON dynstat_vvel_min             =  -5.8181218291663E+01
(PID.TID 0000.0001) %MON dynstat_vvel_mean            =   1.3846444346968E+00
(PID.TID 0000.0001) %MON dynstat_vvel_sd              =   1.2006382664130E+01
(PID.TID 0000.0001) %MON dynstat_vvel_del2            =   9.0085149099286E-01
(PID.TID 0000.0001) %MON dynstat_wvel_max             =   1.4039336210622E+00
(PID.TID 0000.0001) %MON dynstat_wvel_min             =  -1.1392058704561E+00
(PID.TID 0000.0001) %MON dynstat_wvel_mean            =  -1.2821026583134E-06
(PID.TID 0000.0001) %MON dynstat_wvel_sd              =   1.1592635941217E-01
(PID.TID 0000.0001) %MON dynstat_wvel_del2            =   3.0981457305052E-02
(PID.TID 0000.0001) %MON dynstat_theta_max            =   4.9363884492953E+02
(PID.TID 0000.0001) %MON dynstat_theta_min            =   2.4423458254895E+02
(PID.TID 0000.0001) %MON dynstat_theta_mean           =   3.3135395794855E+02
(PID.TID 0000.0001) %MON dynstat_theta_sd             =   4.8592627671144E+01
(PID.TID 0000.0001) %MON dynstat_theta_del2           =   8.5745468073947E-01
(PID.TID 0000.0001) %MON dynstat_salt_max             =   1.9055808994160E+01
(PID.TID 0000.0001) %MON dynstat_salt_min             =  -6.1603958570581E-01
(PID.TID 0000.0001) %MON dynstat_salt_mean            =   2.2677063740765E+00
(PID.TID 0000.0001) %MON dynstat_salt_sd              =   3.2624405762617E+00
(PID.TID 0000.0001) %MON dynstat_salt_del2            =   1.6828731505485E-01
(PID.TID 0000.0001) %MON advcfl_uvel_max              =   1.5798362197666E-01
(PID.TID 0000.0001) %MON advcfl_vvel_max              =   2.0258705120233E-01
(PID.TID 0000.0001) %MON advcfl_wvel_max              =   2.5270805179119E-02
(PID.TID 0000.0001) %MON advcfl_W_hf_max              =   1.1604896842962E-01
(PID.TID 0000.0001) %MON pe_b_mean                    =   4.7458822975610E+00
(PID.TID 0000.0001) %MON ke_max                       =   2.9080751007930E+03
(PID.TID 0000.0001) %MON ke_mean                      =   1.4285860152036E+02
(PID.TID 0000.0001) %MON ke_vol                       =   4.9349303958998E+19
(PID.TID 0000.0001) %MON vort_r_min                   =  -1.5670276296464E-04
(PID.TID 0000.0001) %MON vort_r_max                   =   2.1525293479775E-04
(PID.TID 0000.0001) %MON vort_a_mean                  =  -2.3628485915840E-08
(PID.TID 0000.0001) %MON vort_a_sd                    =   8.9045464080121E-05
(PID.TID 0000.0001) %MON vort_p_mean                  =  -2.4339733949251E-08
(PID.TID 0000.0001) %MON vort_p_sd                    =   9.6574227739041E-05
(PID.TID 0000.0001) %MON surfExpan_theta_mean         =  -2.6434807689135E-04
(PID.TID 0000.0001) %MON surfExpan_salt_mean          =  -5.6896707877368E-04
(PID.TID 0000.0001) %MON surfExpan_Heat_mean          =  -5.6587048148703E-02
(PID.TID 0000.0001) %MON En_Budget_T2PE_mean          =   2.0773987779407E+00
(PID.TID 0000.0001) // =======================================================
(PID.TID 0000.0001) // End MONITOR dynamic field statistics
(PID.TID 0000.0001) // =======================================================
(PID.TID 0000.0001)   Seconds in section "ALL                    [THE_MODEL_MAIN]":
(PID.TID 0000.0001)           User time:  13.8400004
(PID.TID 0000.0001)         System time:  0.370000005
(PID.TID 0000.0001)     Wall clock time:  14.867736
(PID.TID 0000.0001)          No. starts: 1
(PID.TID 0000.0001)           No. stops: 1
(PID.TID 0000.0001)   Seconds in section "INITIALISE_FIXED       [THE_MODEL_MAIN]":
(PID.TID 0000.0001)           User time:  0.660000017
(PID.TID 0000.0001)         System time:  0.140000001
(PID.TID 0000.0001)     Wall clock time:  1.05689502
(PID.TID 0000.0001)          No. starts: 1
(PID.TID 0000.0001)           No. stops: 1
(PID.TID 0000.0001)   Seconds in section "THE_MAIN_LOOP          [THE_MODEL_MAIN]":
(PID.TID 0000.0001)           User time:  12.8999997
(PID.TID 0000.0001)         System time:  0.190000013
(PID.TID 0000.0001)     Wall clock time:  13.3888999
(PID.TID 0000.0001)          No. starts: 1
(PID.TID 0000.0001)           No. stops: 1
(PID.TID 0000.0001)   Seconds in section "INITIALISE_VARIA    [THE_MAIN_LOOP]":
(PID.TID 0000.0001)           User time:  0.339999974
(PID.TID 0000.0001)         System time:  0.0900000036
(PID.TID 0000.0001)     Wall clock time:  0.504426956
(PID.TID 0000.0001)          No. starts: 1
(PID.TID 0000.0001)           No. stops: 1
(PID.TID 0000.0001)   Seconds in section "WRITE_STATE         [THE_MAIN_LOOP]":
(PID.TID 0000.0001)           User time:  0.159999967
(PID.TID 0000.0001)         System time:  0.0199999958
(PID.TID 0000.0001)     Wall clock time:  0.248731017
(PID.TID 0000.0001)          No. starts: 1
(PID.TID 0000.0001)           No. stops: 1
(PID.TID 0000.0001)   Seconds in section "MONITOR             [THE_MAIN_LOOP]":
(PID.TID 0000.0001)           User time:  0.180000067
(PID.TID 0000.0001)         System time:  0.
(PID.TID 0000.0001)     Wall clock time:  0.179996014
(PID.TID 0000.0001)          No. starts: 1
(PID.TID 0000.0001)           No. stops: 1
(PID.TID 0000.0001)   Seconds in section "MAIN LOOP           [THE_MAIN_LOOP]":
(PID.TID 0000.0001)           User time:  12.2199997
(PID.TID 0000.0001)         System time:  0.0800000131
(PID.TID 0000.0001)     Wall clock time:  12.455371
(PID.TID 0000.0001)          No. starts: 1
(PID.TID 0000.0001)           No. stops: 1
(PID.TID 0000.0001)   Seconds in section "FORWARD_STEP        [THE_MAIN_LOOP]":
(PID.TID 0000.0001)           User time:  12.2199997
(PID.TID 0000.0001)         System time:  0.0800000131
(PID.TID 0000.0001)     Wall clock time:  12.454591
(PID.TID 0000.0001)          No. starts: 10
(PID.TID 0000.0001)           No. stops: 10
(PID.TID 0000.0001)   Seconds in section "UPDATE_ETAH        [FORWARD_STEP]":
(PID.TID 0000.0001)           User time:  0.
(PID.TID 0000.0001)         System time:  0.
(PID.TID 0000.0001)     Wall clock time:  0.00367510319
(PID.TID 0000.0001)          No. starts: 10
(PID.TID 0000.0001)           No. stops: 10
(PID.TID 0000.0001)   Seconds in section "EXTERNAL_FIELDS_LOAD[FORWARD_STEP]":
(PID.TID 0000.0001)           User time:  0.0199999809
(PID.TID 0000.0001)         System time:  0.
(PID.TID 0000.0001)     Wall clock time:  0.0606392622
(PID.TID 0000.0001)          No. starts: 10
(PID.TID 0000.0001)           No. stops: 10
(PID.TID 0000.0001)   Seconds in section "THERMODYNAMICS      [FORWARD_STEP]":
(PID.TID 0000.0001)           User time:  4.50999856
(PID.TID 0000.0001)         System time:  0.00999999046
(PID.TID 0000.0001)     Wall clock time:  4.47010624
(PID.TID 0000.0001)          No. starts: 10
(PID.TID 0000.0001)           No. stops: 10
(PID.TID 0000.0001)   Seconds in section "AIM_DO_PHYSICS   [THERMODYNAMICS]":
(PID.TID 0000.0001)           User time:  3.06999564
(PID.TID 0000.0001)         System time:  0.00999999046
(PID.TID 0000.0001)     Wall clock time:  3.06960535
(PID.TID 0000.0001)          No. starts: 60
(PID.TID 0000.0001)           No. stops: 60
(PID.TID 0000.0001)   Seconds in section "BLOCKING_EXCHANGES  [FORWARD_STEP]":
(PID.TID 0000.0001)           User time:  0.100000858
(PID.TID 0000.0001)         System time:  0.
(PID.TID 0000.0001)     Wall clock time:  0.0737838745
(PID.TID 0000.0001)          No. starts: 20
(PID.TID 0000.0001)           No. stops: 20
(PID.TID 0000.0001)   Seconds in section "SHAP_FILT           [FORWARD_STEP]":
(PID.TID 0000.0001)           User time:  0.
(PID.TID 0000.0001)         System time:  0.
(PID.TID 0000.0001)     Wall clock time:  0.000714063644
(PID.TID 0000.0001)          No. starts: 10
(PID.TID 0000.0001)           No. stops: 10
(PID.TID 0000.0001)   Seconds in section "DYNAMICS            [FORWARD_STEP]":
(PID.TID 0000.0001)           User time:  2.24000204
(PID.TID 0000.0001)         System time:  0.
(PID.TID 0000.0001)     Wall clock time:  2.2571032
(PID.TID 0000.0001)          No. starts: 10
(PID.TID 0000.0001)           No. stops: 10
(PID.TID 0000.0001)   Seconds in section "SOLVE_FOR_PRESSURE  [FORWARD_STEP]":
(PID.TID 0000.0001)           User time:  0.959996939
(PID.TID 0000.0001)         System time:  0.
(PID.TID 0000.0001)     Wall clock time:  0.915557981
(PID.TID 0000.0001)          No. starts: 10
(PID.TID 0000.0001)           No. stops: 10
(PID.TID 0000.0001)   Seconds in section "THE_CORRECTION_STEP [FORWARD_STEP]":
(PID.TID 0000.0001)           User time:  2.59000134
(PID.TID 0000.0001)         System time:  0.0100000203
(PID.TID 0000.0001)     Wall clock time:  2.66273081
(PID.TID 0000.0001)          No. starts: 10
(PID.TID 0000.0001)           No. stops: 10
(PID.TID 0000.0001)   Seconds in section "MONITOR             [FORWARD_STEP]":
(PID.TID 0000.0001)           User time:  1.70000052
(PID.TID 0000.0001)         System time:  0.
(PID.TID 0000.0001)     Wall clock time:  1.7234962
(PID.TID 0000.0001)          No. starts: 10
(PID.TID 0000.0001)           No. stops: 10
(PID.TID 0000.0001)   Seconds in section "DO_THE_MODEL_IO     [FORWARD_STEP]":
(PID.TID 0000.0001)           User time:  0.0999994278
(PID.TID 0000.0001)         System time:  0.0600000024
(PID.TID 0000.0001)     Wall clock time:  0.276552081
(PID.TID 0000.0001)          No. starts: 10
(PID.TID 0000.0001)           No. stops: 10
(PID.TID 0000.0001)   Seconds in section "WRITE_CHECKPOINT    [FORWARD_STEP]":
(PID.TID 0000.0001)           User time:  0.
(PID.TID 0000.0001)         System time:  0.
(PID.TID 0000.0001)     Wall clock time:  0.000720024109
(PID.TID 0000.0001)          No. starts: 10
(PID.TID 0000.0001)           No. stops: 10
(PID.TID 0000.0001)   Seconds in section "WRITE_CHECKPOINT       [THE_MODEL_MAIN]":
(PID.TID 0000.0001)           User time:  0.280000687
(PID.TID 0000.0001)         System time:  0.0399999917
(PID.TID 0000.0001)     Wall clock time:  0.421622038
(PID.TID 0000.0001)          No. starts: 1
(PID.TID 0000.0001)           No. stops: 1
(PID.TID 0000.0001) // ======================================================
(PID.TID 0000.0001) // Tile <-> Tile communication statistics
(PID.TID 0000.0001) // ======================================================
(PID.TID 0000.0001) // o Tile number: 000001
(PID.TID 0000.0001) //         No. X exchanges =              0
(PID.TID 0000.0001) //            Max. X spins =              0
(PID.TID 0000.0001) //            Min. X spins =     1000000000
(PID.TID 0000.0001) //          Total. X spins =              0
(PID.TID 0000.0001) //            Avg. X spins =       0.00E+00
(PID.TID 0000.0001) //         No. Y exchanges =              0
(PID.TID 0000.0001) //            Max. Y spins =              0
(PID.TID 0000.0001) //            Min. Y spins =     1000000000
(PID.TID 0000.0001) //          Total. Y spins =              0
(PID.TID 0000.0001) //            Avg. Y spins =       0.00E+00
(PID.TID 0000.0001) // o Tile number: 000002
(PID.TID 0000.0001) //         No. X exchanges =              0
(PID.TID 0000.0001) //            Max. X spins =              0
(PID.TID 0000.0001) //            Min. X spins =     1000000000
(PID.TID 0000.0001) //          Total. X spins =              0
(PID.TID 0000.0001) //            Avg. X spins =       0.00E+00
(PID.TID 0000.0001) //         No. Y exchanges =              0
(PID.TID 0000.0001) //            Max. Y spins =              0
(PID.TID 0000.0001) //            Min. Y spins =     1000000000
(PID.TID 0000.0001) //          Total. Y spins =              0
(PID.TID 0000.0001) //            Avg. Y spins =       0.00E+00
(PID.TID 0000.0001) // o Tile number: 000003
(PID.TID 0000.0001) //         No. X exchanges =              0
(PID.TID 0000.0001) //            Max. X spins =              0
(PID.TID 0000.0001) //            Min. X spins =     1000000000
(PID.TID 0000.0001) //          Total. X spins =              0
(PID.TID 0000.0001) //            Avg. X spins =       0.00E+00
(PID.TID 0000.0001) //         No. Y exchanges =              0
(PID.TID 0000.0001) //            Max. Y spins =              0
(PID.TID 0000.0001) //            Min. Y spins =     1000000000
(PID.TID 0000.0001) //          Total. Y spins =              0
(PID.TID 0000.0001) //            Avg. Y spins =       0.00E+00
(PID.TID 0000.0001) // o Tile number: 000004
(PID.TID 0000.0001) //         No. X exchanges =              0
(PID.TID 0000.0001) //            Max. X spins =              0
(PID.TID 0000.0001) //            Min. X spins =     1000000000
(PID.TID 0000.0001) //          Total. X spins =              0
(PID.TID 0000.0001) //            Avg. X spins =       0.00E+00
(PID.TID 0000.0001) //         No. Y exchanges =              0
(PID.TID 0000.0001) //            Max. Y spins =              0
(PID.TID 0000.0001) //            Min. Y spins =     1000000000
(PID.TID 0000.0001) //          Total. Y spins =              0
(PID.TID 0000.0001) //            Avg. Y spins =       0.00E+00
(PID.TID 0000.0001) // o Tile number: 000005
(PID.TID 0000.0001) //         No. X exchanges =              0
(PID.TID 0000.0001) //            Max. X spins =              0
(PID.TID 0000.0001) //            Min. X spins =     1000000000
(PID.TID 0000.0001) //          Total. X spins =              0
(PID.TID 0000.0001) //            Avg. X spins =       0.00E+00
(PID.TID 0000.0001) //         No. Y exchanges =              0
(PID.TID 0000.0001) //            Max. Y spins =              0
(PID.TID 0000.0001) //            Min. Y spins =     1000000000
(PID.TID 0000.0001) //          Total. Y spins =              0
(PID.TID 0000.0001) //            Avg. Y spins =       0.00E+00
(PID.TID 0000.0001) // o Tile number: 000006
(PID.TID 0000.0001) //         No. X exchanges =              0
(PID.TID 0000.0001) //            Max. X spins =              0
(PID.TID 0000.0001) //            Min. X spins =     1000000000
(PID.TID 0000.0001) //          Total. X spins =              0
(PID.TID 0000.0001) //            Avg. X spins =       0.00E+00
(PID.TID 0000.0001) //         No. Y exchanges =              0
(PID.TID 0000.0001) //            Max. Y spins =              0
(PID.TID 0000.0001) //            Min. Y spins =     1000000000
(PID.TID 0000.0001) //          Total. Y spins =              0
(PID.TID 0000.0001) //            Avg. Y spins =       0.00E+00
(PID.TID 0000.0001) // o Thread number: 000001
(PID.TID 0000.0001) //            No. barriers =           7142
(PID.TID 0000.0001) //      Max. barrier spins =              1
(PID.TID 0000.0001) //      Min. barrier spins =              1
(PID.TID 0000.0001) //     Total barrier spins =           7142
(PID.TID 0000.0001) //      Avg. barrier spins =       1.00E+00
